data_msu_hg15c5_lt_0m
_audit_creation_date               2024-12-09
_audit_creation_method
;
Olex2 1.5
(compiled 2024.02.16 svn.r378c4104 for OlexSys, GUI svn.r6928)
;
_shelx_SHELXL_version_number       '2018/3'
_audit_contact_author_address      ?
_audit_contact_author_email        ?
_audit_contact_author_name         ''
_audit_contact_author_phone        ?
_publ_contact_author_id_orcid      ?
_publ_section_references
;
Dolomanov, O.V., Bourhis, L.J., Gildea, R.J, Howard, J.A.K. & Puschmann, H.
 (2009), J. Appl. Cryst. 42, 339-341.

Sheldrick, G.M. (2015). Acta Cryst. A71, 3-8.

Sheldrick, G.M. (2015). Acta Cryst. C71, 3-8.
;
_chemical_name_common              ?
_chemical_name_systematic          ?
_chemical_formula_moiety           'C10 H22 Hg O10 Re, O4 Re, H2 O'
_chemical_formula_sum              'C10 H24 Hg O15 Re2'
_chemical_formula_weight           957.28
_chemical_melting_point            ?
loop_
  _atom_type_symbol
  _atom_type_description
  _atom_type_scat_dispersion_real
  _atom_type_scat_dispersion_imag
  _atom_type_scat_source
 'C' 'C' 0.0033 0.0016 'International Tables Vol C Tables 4.2.6.8 and 6.1.1.4'
 'H' 'H' 0.0000 0.0000 'International Tables Vol C Tables 4.2.6.8 and 6.1.1.4'
 'Hg' 'Hg' -2.3894 9.2266
 'International Tables Vol C Tables 4.2.6.8 and 6.1.1.4'
 'O' 'O' 0.0106 0.0060 'International Tables Vol C Tables 4.2.6.8 and 6.1.1.4'
 'Re' 'Re' -1.0185 7.2310
 'International Tables Vol C Tables 4.2.6.8 and 6.1.1.4'

_shelx_space_group_comment
;
The symmetry employed for this shelxl refinement is uniquely defined
by the following loop, which should always be used as a source of
symmetry information in preference to the above space-group names.
They are only intended as comments.
;
_space_group_crystal_system        'triclinic'
_space_group_IT_number             2
_space_group_name_H-M_alt          'P -1'
_space_group_name_Hall             '-P 1'
loop_
  _space_group_symop_operation_xyz
 'x, y, z'
 '-x, -y, -z'

_cell_length_a                     7.9707(8)
_cell_length_b                     8.9714(8)
_cell_length_c                     15.4636(14)
_cell_angle_alpha                  80.019(4)
_cell_angle_beta                   79.066(4)
_cell_angle_gamma                  66.137(4)
_cell_volume                       987.13(16)
_cell_formula_units_Z              2
_cell_measurement_reflns_used      1963
_cell_measurement_temperature      100(2)
_cell_measurement_theta_max        29.629
_cell_measurement_theta_min        2.960
_shelx_estimated_absorpt_T_max     0.216
_shelx_estimated_absorpt_T_min     0.142
_exptl_absorpt_coefficient_mu      20.062
_exptl_absorpt_correction_T_max    1.0000
_exptl_absorpt_correction_T_min    0.4541
_exptl_absorpt_correction_type     multi-scan
_exptl_absorpt_process_details
;
SADABS-2016/2 (Bruker,2016/2) was used for absorption correction.
wR2(int) was 0.1460 before and 0.0680 after correction.
The Ratio of minimum to maximum transmission is 0.4541.
The \l/2 correction factor is Not present.
;
_exptl_absorpt_special_details     ?
_exptl_crystal_colour              colourless
_exptl_crystal_colour_primary      colourless
_exptl_crystal_density_diffrn      3.221
_exptl_crystal_density_meas        ?
_exptl_crystal_density_method      ?
_exptl_crystal_description         block
_exptl_crystal_F_000               868
_exptl_crystal_size_max            0.16
_exptl_crystal_size_mid            0.12
_exptl_crystal_size_min            0.11
_exptl_transmission_factor_max     ?
_exptl_transmission_factor_min     ?
_diffrn_reflns_av_R_equivalents    0.0837
_diffrn_reflns_av_unetI/netI       0.0940
_diffrn_reflns_Laue_measured_fraction_full  0.996
_diffrn_reflns_Laue_measured_fraction_max  0.996
_diffrn_reflns_limit_h_max         10
_diffrn_reflns_limit_h_min         -10
_diffrn_reflns_limit_k_max         11
_diffrn_reflns_limit_k_min         -11
_diffrn_reflns_limit_l_max         19
_diffrn_reflns_limit_l_min         -20
_diffrn_reflns_number              14932
_diffrn_reflns_point_group_measured_fraction_full  0.996
_diffrn_reflns_point_group_measured_fraction_max  0.996
_diffrn_reflns_theta_full          25.242
_diffrn_reflns_theta_max           27.498
_diffrn_reflns_theta_min           4.156
_diffrn_ambient_temperature        100(2)
_diffrn_detector_area_resol_mean   ?
_diffrn_measured_fraction_theta_full  0.996
_diffrn_measured_fraction_theta_max  0.996
_diffrn_measurement_device_type   
 'Bruker KAPPA APEX II area-detector diffractometer'
_diffrn_measurement_method         ?
_diffrn_radiation_type             MoK\a
_diffrn_radiation_wavelength       0.71073
_diffrn_source                     ?
_reflns_Friedel_coverage           0.000
_reflns_Friedel_fraction_full      .
_reflns_Friedel_fraction_max       .
_reflns_number_gt                  3630
_reflns_number_total               4529
_reflns_special_details
;
 Reflections were merged by SHELXL according to the crystal
 class for the calculation of statistics and refinement.
 
 _reflns_Friedel_fraction is defined as the number of unique
 Friedel pairs measured divided by the number that would be
 possible theoretically, ignoring centric projections and
 systematic absences.
;
_reflns_threshold_expression       'I > 2\s(I)'
_computing_cell_refinement         'SAINT V8.40B (Bruker, 2020)'
_computing_data_collection         ?
_computing_data_reduction          'SAINT V8.40B (Bruker, 2020)'
_computing_molecular_graphics      'Olex2 1.5 (Dolomanov et al., 2009)'
_computing_publication_material    'Olex2 1.5 (Dolomanov et al., 2009)'
_computing_structure_refinement    'SHELXL 2018/3 (Sheldrick, 2015)'
_computing_structure_solution      'SHELXT 2018/2 (Sheldrick, 2018)'
_refine_diff_density_max           2.374
_refine_diff_density_min           -1.869
_refine_diff_density_rms           0.431
_refine_ls_extinction_coef         0.00133(10)
_refine_ls_extinction_expression  
 'Fc^*^=kFc[1+0.001xFc^2^\l^3^/sin(2\q)]^-1/4^'
_refine_ls_extinction_method       'SHELXL-2018/3 (Sheldrick 2018)'
_refine_ls_goodness_of_fit_ref     1.003
_refine_ls_hydrogen_treatment      constr
_refine_ls_matrix_type             full
_refine_ls_number_parameters       234
_refine_ls_number_reflns           4529
_refine_ls_number_restraints       54
_refine_ls_R_factor_all            0.0609
_refine_ls_R_factor_gt             0.0444
_refine_ls_restrained_S_all        0.998
_refine_ls_shift/su_max            0.001
_refine_ls_shift/su_mean           0.000
_refine_ls_structure_factor_coef   Fsqd
_refine_ls_weighting_details       'w=1/[\s^2^(Fo^2^)] where P=(Fo^2^+2Fc^2^)/3'
_refine_ls_weighting_scheme        calc
_refine_ls_wR_factor_gt            0.0762
_refine_ls_wR_factor_ref           0.0824
_refine_special_details            ?
_olex2_refinement_description
;
1. Fixed Uiso
 At 1.2 times of:
  All C(H,H) groups
 At 1.5 times of:
  All O(H,H) groups
2. Uiso/Uaniso restraints and constraints
Uanis(C9) \\sim Ueq, Uanis(C7) \\sim Ueq, Uanis(O4) \\sim Ueq: with sigma of
0.1 and sigma for terminal atoms of 0.2
Uanis(O10) \\sim Ueq: with sigma of 0.1 and sigma for terminal atoms of 0.2
Uanis(C9) \\sim Ueq, Uanis(C7) \\sim Ueq: with sigma of 0.005 and sigma for
terminal atoms of 0.01
Uanis(O4) \\sim Ueq, Uanis(O10) \\sim Ueq: with sigma of 0.01 and sigma for
terminal atoms of 0.02
Uanis(O9) \\sim Ueq, Uanis(O4) \\sim Ueq: with sigma of 0.01 and sigma for
terminal atoms of 0.02
Uanis(O4) \\sim Ueq, Uanis(O9) \\sim Ueq: with sigma of 0.005 and sigma for
terminal atoms of 0.01
Uanis(C1) \\sim Ueq, Uanis(C3) \\sim Ueq, Uanis(C4) \\sim Ueq, Uanis(C6) \\sim
Ueq: with sigma of 0.005 and sigma for terminal atoms of 0.01
Uanis(O4) \\sim Ueq: with sigma of 0.001 and sigma for terminal atoms of 0.002
Uanis(O13) = Uanis(O12) = Uanis(O11) = Uanis(O10) = Uanis(O9)
3.a Free rotating group:
 O15(H15A,H15B)
3.b Rotating group:
 O14(H14A,H14B)
3.c Secondary CH2 refined with riding coordinates:
 C7(H7A,H7B), C10(H10A,H10B), C1(H1A,H1B), C9(H9A,H9B), C3(H3A,H3B), C8(H8A,
 H8B), C4(H4A,H4B), C5(H5A,H5B), C2(H2A,H2B), C6(H6A,H6B)
;
_atom_sites_solution_hydrogens     mixed
_atom_sites_solution_primary       dual
_atom_sites_solution_secondary     ?
loop_
  _atom_site_label
  _atom_site_type_symbol
  _atom_site_fract_x
  _atom_site_fract_y
  _atom_site_fract_z
  _atom_site_U_iso_or_equiv
  _atom_site_adp_type
  _atom_site_occupancy
  _atom_site_site_symmetry_order
  _atom_site_calc_flag
  _atom_site_refinement_flags_posn
  _atom_site_refinement_flags_adp
  _atom_site_refinement_flags_occupancy
  _atom_site_disorder_assembly
  _atom_site_disorder_group
 Hg1 Hg 0.66688(6) 0.41133(5) 0.28548(2) 0.00631(11) Uani 1 1 d . . . . .
 Re2 Re 0.20890(6) 0.97522(5) 0.09816(3) 0.00833(12) Uani 1 1 d . . . . .
 Re1 Re 0.42296(6) 0.25895(5) 0.52260(3) 0.00639(11) Uani 1 1 d . . . . .
 O9 O 0.8090(10) 0.6170(8) 0.2167(4) 0.0092(7) Uani 1 1 d . U . . .
 O15 O 0.1751(11) 0.6766(10) 0.4533(5) 0.0171(18) Uani 1 1 d G . . . .
 H15A H 0.230268 0.633358 0.498781 0.026 Uiso 1 1 d G U . . .
 H15B H 0.075876 0.658746 0.465393 0.026 Uiso 1 1 d G U . . .
 O10 O 0.9544(10) 0.3461(9) 0.3421(4) 0.0092(7) Uani 1 1 d . U . . .
 O14 O 0.3691(9) 0.5973(8) 0.2893(5) 0.0113(16) Uani 1 1 d . . . . .
 H14A H 0.366840 0.683350 0.255162 0.017 Uiso 1 1 d R U . . .
 H14B H 0.330550 0.629745 0.340776 0.017 Uiso 1 1 d R U . . .
 O5 O 0.3140(11) 0.8930(9) 0.1933(5) 0.0194(19) Uani 1 1 d . . . . .
 O12 O 0.5266(10) 0.2408(9) 0.2273(4) 0.0092(7) Uani 1 1 d . . . . .
 O3 O 0.2090(10) 0.2575(9) 0.5159(5) 0.0166(18) Uani 1 1 d . . . . .
 O11 O 0.8669(10) 0.1165(8) 0.2820(4) 0.0092(7) Uani 1 1 d . . . . .
 O13 O 0.6507(10) 0.4825(8) 0.1251(4) 0.0092(7) Uani 1 1 d . . . . .
 O7 O 0.1230(11) 1.1865(9) 0.0918(5) 0.0173(18) Uani 1 1 d . . . . .
 O2 O 0.5555(10) 0.0741(9) 0.5754(5) 0.0156(18) Uani 1 1 d . . . . .
 O8 O 0.3693(11) 0.9090(10) 0.0091(5) 0.0184(19) Uani 1 1 d . . . . .
 C7 C 0.4838(14) 0.3153(13) 0.1409(6) 0.008(2) Uani 1 1 d . U . . .
 H7A H 0.374736 0.415964 0.145896 0.010 Uiso 1 1 calc R U . . .
 H7B H 0.454884 0.242349 0.112087 0.010 Uiso 1 1 calc R U . . .
 C10 C 0.7674(15) 0.6801(13) 0.1275(7) 0.012(2) Uani 1 1 d . . . . .
 H10A H 0.853998 0.729149 0.097308 0.014 Uiso 1 1 calc R U . . .
 H10B H 0.643871 0.765043 0.129675 0.014 Uiso 1 1 calc R U . . .
 C1 C 1.0034(15) 0.5445(13) 0.2211(7) 0.013(2) Uani 1 1 d . U . . .
 H1A H 1.056978 0.626782 0.204314 0.016 Uiso 1 1 calc R U . . .
 H1B H 1.063814 0.460072 0.181129 0.016 Uiso 1 1 calc R U . . .
 C9 C 0.7783(15) 0.5508(14) 0.0772(7) 0.014(2) Uani 1 1 d . U . . .
 H9A H 0.745968 0.596600 0.018229 0.017 Uiso 1 1 calc R U . . .
 H9B H 0.902749 0.467305 0.071883 0.017 Uiso 1 1 calc R U . . .
 O6 O 0.0326(11) 0.9087(10) 0.1009(5) 0.0213(19) Uani 1 1 d . . . . .
 O4 O 0.3859(9) 0.4151(8) 0.5839(4) 0.0085(15) Uani 1 1 d . U . . .
 C3 C 1.0925(14) 0.1870(13) 0.3285(7) 0.010(2) Uani 1 1 d . U . . .
 H3A H 1.185192 0.156596 0.367889 0.012 Uiso 1 1 calc R U . . .
 H3B H 1.153115 0.185136 0.267855 0.012 Uiso 1 1 calc R U . . .
 C8 C 0.6392(14) 0.3532(13) 0.0846(7) 0.010(2) Uani 1 1 d . . . . .
 H8A H 0.754142 0.257343 0.084576 0.012 Uiso 1 1 calc R U . . .
 H8B H 0.613021 0.390174 0.024013 0.012 Uiso 1 1 calc R U . . .
 O1 O 0.5359(10) 0.2899(9) 0.4180(5) 0.0162(18) Uani 1 1 d . . . . .
 C4 C 0.9934(14) 0.0708(13) 0.3482(7) 0.009(2) Uani 1 1 d . U . . .
 H4A H 1.081707 -0.041291 0.344782 0.011 Uiso 1 1 calc R U . . .
 H4B H 0.924787 0.079392 0.407309 0.011 Uiso 1 1 calc R U . . .
 C5 C 0.7622(15) 0.0126(13) 0.2971(7) 0.013(2) Uani 1 1 d . . . . .
 H5A H 0.690141 0.022188 0.355417 0.016 Uiso 1 1 calc R U . . .
 H5B H 0.845181 -0.101152 0.293502 0.016 Uiso 1 1 calc R U . . .
 C2 C 1.0283(16) 0.4713(14) 0.3154(7) 0.015(3) Uani 1 1 d . . . . .
 H2A H 1.159137 0.424729 0.321379 0.018 Uiso 1 1 calc R U . . .
 H2B H 0.966940 0.557206 0.354376 0.018 Uiso 1 1 calc R U . . .
 C6 C 0.6375(14) 0.0684(13) 0.2271(7) 0.012(2) Uani 1 1 d . U . . .
 H6A H 0.710892 0.047166 0.169604 0.015 Uiso 1 1 calc R U . . .
 H6B H 0.557550 0.007522 0.237911 0.015 Uiso 1 1 calc R U . . .

loop_
  _atom_site_aniso_label
  _atom_site_aniso_U_11
  _atom_site_aniso_U_22
  _atom_site_aniso_U_33
  _atom_site_aniso_U_23
  _atom_site_aniso_U_13
  _atom_site_aniso_U_12
 Hg1 0.0073(2) 0.0077(2) 0.0041(2) 0.00090(15) 0.00015(15) -0.00404(17)
 Re2 0.0102(2) 0.0087(2) 0.0066(2) -0.00034(16) 0.00047(17) -0.00502(18)
 Re1 0.0077(2) 0.0072(2) 0.0034(2) 0.00115(16) 0.00085(16) -0.00339(18)
 O9 0.0109(17) 0.0095(17) 0.0072(16) -0.0006(13) -0.0011(13) -0.0042(14)
 O15 0.007(4) 0.023(5) 0.018(4) -0.004(4) 0.004(3) -0.004(4)
 O10 0.0109(17) 0.0095(17) 0.0072(16) -0.0006(13) -0.0011(13) -0.0042(14)
 O14 0.010(4) 0.010(4) 0.011(4) -0.003(3) 0.001(3) -0.002(3)
 O5 0.023(5) 0.011(5) 0.019(4) -0.002(3) 0.002(4) -0.002(4)
 O12 0.0109(17) 0.0095(17) 0.0072(16) -0.0006(13) -0.0011(13) -0.0042(14)
 O3 0.006(4) 0.023(5) 0.019(4) -0.006(4) 0.001(3) -0.003(4)
 O11 0.0109(17) 0.0095(17) 0.0072(16) -0.0006(13) -0.0011(13) -0.0042(14)
 O13 0.0109(17) 0.0095(17) 0.0072(16) -0.0006(13) -0.0011(13) -0.0042(14)
 O7 0.021(5) 0.019(5) 0.015(4) -0.004(3) 0.001(4) -0.011(4)
 O2 0.010(4) 0.013(5) 0.021(4) 0.005(3) -0.001(3) -0.005(3)
 O8 0.019(5) 0.023(5) 0.014(4) -0.007(4) 0.011(3) -0.013(4)
 C7 0.007(4) 0.010(4) 0.004(4) -0.002(3) 0.002(3) 0.000(3)
 C10 0.014(6) 0.008(6) 0.016(6) 0.002(4) -0.007(5) -0.005(5)
 C1 0.009(4) 0.014(4) 0.016(4) 0.001(3) -0.006(3) -0.002(3)
 C9 0.009(4) 0.017(4) 0.014(4) 0.004(3) -0.001(3) -0.005(3)
 O6 0.020(5) 0.025(5) 0.020(5) -0.006(4) 0.005(4) -0.012(4)
 O4 0.0080(18) 0.0087(18) 0.0082(17) -0.0006(10) -0.0004(10) -0.0031(11)
 C3 0.006(4) 0.013(4) 0.006(4) -0.001(3) -0.001(3) 0.001(3)
 C8 0.005(6) 0.013(6) 0.010(6) -0.006(4) -0.001(4) 0.000(5)
 O1 0.018(5) 0.012(5) 0.011(4) 0.003(3) 0.003(3) -0.002(4)
 C4 0.011(4) 0.009(4) 0.006(4) 0.002(3) 0.000(3) -0.004(3)
 C5 0.016(7) 0.011(6) 0.016(6) 0.003(5) -0.003(5) -0.011(5)
 C2 0.025(7) 0.011(6) 0.015(6) 0.002(5) -0.001(5) -0.015(5)
 C6 0.010(4) 0.012(4) 0.012(4) -0.003(3) 0.006(3) -0.005(3)

_geom_special_details
;
 All esds (except the esd in the dihedral angle between two l.s. planes)
 are estimated using the full covariance matrix.  The cell esds are taken
 into account individually in the estimation of esds in distances, angles
 and torsion angles; correlations between esds in cell parameters are only
 used when they are defined by crystal symmetry.  An approximate (isotropic)
 treatment of cell esds is used for estimating esds involving l.s. planes.
;
loop_
  _geom_bond_atom_site_label_1
  _geom_bond_atom_site_label_2
  _geom_bond_distance
  _geom_bond_site_symmetry_2
  _geom_bond_publ_flag
 Hg1 O9 2.525(7) . ?
 Hg1 O10 2.421(7) . ?
 Hg1 O14 2.279(7) . ?
 Hg1 O12 2.578(6) . ?
 Hg1 O11 2.479(7) . ?
 Hg1 O13 2.466(7) . ?
 Hg1 O4 2.631(6) 2_666 ?
 Hg1 O1 2.410(8) . ?
 Re2 O5 1.732(7) . ?
 Re2 O7 1.727(8) . ?
 Re2 O8 1.699(7) . ?
 Re2 O6 1.726(8) . ?
 Re1 O3 1.734(7) . ?
 Re1 O2 1.724(7) . ?
 Re1 O4 1.722(6) . ?
 Re1 O1 1.732(8) . ?
 O9 C10 1.443(11) . ?
 O9 C1 1.428(12) . ?
 O15 H15A 0.8506 . ?
 O15 H15B 0.8497 . ?
 O10 C3 1.427(12) . ?
 O10 C2 1.435(12) . ?
 O14 H14A 0.8525 . ?
 O14 H14B 0.8526 . ?
 O12 C7 1.424(11) . ?
 O12 C6 1.438(12) . ?
 O11 C4 1.465(11) . ?
 O11 C5 1.449(11) . ?
 O13 C9 1.422(12) . ?
 O13 C8 1.451(11) . ?
 C7 H7A 0.9700 . ?
 C7 H7B 0.9700 . ?
 C7 C8 1.496(14) . ?
 C10 H10A 0.9700 . ?
 C10 H10B 0.9700 . ?
 C10 C9 1.471(13) . ?
 C1 H1A 0.9700 . ?
 C1 H1B 0.9700 . ?
 C1 C2 1.507(14) . ?
 C9 H9A 0.9700 . ?
 C9 H9B 0.9700 . ?
 C3 H3A 0.9700 . ?
 C3 H3B 0.9700 . ?
 C3 C4 1.506(14) . ?
 C8 H8A 0.9700 . ?
 C8 H8B 0.9700 . ?
 C4 H4A 0.9700 . ?
 C4 H4B 0.9700 . ?
 C5 H5A 0.9700 . ?
 C5 H5B 0.9700 . ?
 C5 C6 1.493(13) . ?
 C2 H2A 0.9700 . ?
 C2 H2B 0.9700 . ?
 C6 H6A 0.9700 . ?
 C6 H6B 0.9700 . ?

loop_
  _geom_angle_atom_site_label_1
  _geom_angle_atom_site_label_2
  _geom_angle_atom_site_label_3
  _geom_angle
  _geom_angle_site_symmetry_1
  _geom_angle_site_symmetry_3
  _geom_angle_publ_flag
 O9 Hg1 O12 135.5(2) . . ?
 O9 Hg1 O4 76.7(2) . 2_666 ?
 O10 Hg1 O9 69.5(2) . . ?
 O10 Hg1 O12 133.9(2) . . ?
 O10 Hg1 O11 68.8(2) . . ?
 O10 Hg1 O13 119.8(2) . . ?
 O10 Hg1 O4 69.0(2) . 2_666 ?
 O14 Hg1 O9 94.8(2) . . ?
 O14 Hg1 O10 142.5(2) . . ?
 O14 Hg1 O12 81.4(2) . . ?
 O14 Hg1 O11 144.2(2) . . ?
 O14 Hg1 O13 80.5(2) . . ?
 O14 Hg1 O4 74.3(2) . 2_666 ?
 O14 Hg1 O1 81.9(3) . . ?
 O12 Hg1 O4 141.5(2) . 2_666 ?
 O11 Hg1 O9 117.6(2) . . ?
 O11 Hg1 O12 65.1(2) . . ?
 O11 Hg1 O4 125.3(2) . 2_666 ?
 O13 Hg1 O9 66.8(2) . . ?
 O13 Hg1 O12 68.8(2) . . ?
 O13 Hg1 O11 97.8(2) . . ?
 O13 Hg1 O4 133.3(2) . 2_666 ?
 O1 Hg1 O9 147.7(2) . . ?
 O1 Hg1 O10 93.7(2) . . ?
 O1 Hg1 O12 76.0(2) . . ?
 O1 Hg1 O11 78.2(2) . . ?
 O1 Hg1 O13 142.5(2) . . ?
 O1 Hg1 O4 71.5(2) . 2_666 ?
 O7 Re2 O5 109.1(3) . . ?
 O8 Re2 O5 108.6(4) . . ?
 O8 Re2 O7 110.1(4) . . ?
 O8 Re2 O6 109.0(3) . . ?
 O6 Re2 O5 109.5(4) . . ?
 O6 Re2 O7 110.4(4) . . ?
 O2 Re1 O3 109.2(4) . . ?
 O2 Re1 O1 109.5(4) . . ?
 O4 Re1 O3 107.7(3) . . ?
 O4 Re1 O2 109.6(3) . . ?
 O4 Re1 O1 110.2(3) . . ?
 O1 Re1 O3 110.7(3) . . ?
 C10 O9 Hg1 112.1(5) . . ?
 C1 O9 Hg1 109.2(6) . . ?
 C1 O9 C10 112.3(8) . . ?
 H15A O15 H15B 104.5 . . ?
 C3 O10 Hg1 115.5(5) . . ?
 C3 O10 C2 111.7(8) . . ?
 C2 O10 Hg1 113.1(6) . . ?
 Hg1 O14 H14A 109.2 . . ?
 Hg1 O14 H14B 109.5 . . ?
 H14A O14 H14B 104.4 . . ?
 C7 O12 Hg1 106.8(5) . . ?
 C7 O12 C6 111.3(7) . . ?
 C6 O12 Hg1 116.0(5) . . ?
 C4 O11 Hg1 108.1(5) . . ?
 C5 O11 Hg1 112.9(6) . . ?
 C5 O11 C4 111.0(7) . . ?
 C9 O13 Hg1 115.7(5) . . ?
 C9 O13 C8 114.8(8) . . ?
 C8 O13 Hg1 112.2(6) . . ?
 O12 C7 H7A 109.1 . . ?
 O12 C7 H7B 109.1 . . ?
 O12 C7 C8 112.6(8) . . ?
 H7A C7 H7B 107.8 . . ?
 C8 C7 H7A 109.1 . . ?
 C8 C7 H7B 109.1 . . ?
 O9 C10 H10A 109.2 . . ?
 O9 C10 H10B 109.2 . . ?
 O9 C10 C9 111.9(8) . . ?
 H10A C10 H10B 107.9 . . ?
 C9 C10 H10A 109.2 . . ?
 C9 C10 H10B 109.2 . . ?
 O9 C1 H1A 110.3 . . ?
 O9 C1 H1B 110.3 . . ?
 O9 C1 C2 107.0(9) . . ?
 H1A C1 H1B 108.6 . . ?
 C2 C1 H1A 110.3 . . ?
 C2 C1 H1B 110.3 . . ?
 O13 C9 C10 106.6(9) . . ?
 O13 C9 H9A 110.4 . . ?
 O13 C9 H9B 110.4 . . ?
 C10 C9 H9A 110.4 . . ?
 C10 C9 H9B 110.4 . . ?
 H9A C9 H9B 108.6 . . ?
 Re1 O4 Hg1 163.9(4) . 2_666 ?
 O10 C3 H3A 110.5 . . ?
 O10 C3 H3B 110.5 . . ?
 O10 C3 C4 106.3(8) . . ?
 H3A C3 H3B 108.7 . . ?
 C4 C3 H3A 110.5 . . ?
 C4 C3 H3B 110.5 . . ?
 O13 C8 C7 104.7(8) . . ?
 O13 C8 H8A 110.8 . . ?
 O13 C8 H8B 110.8 . . ?
 C7 C8 H8A 110.8 . . ?
 C7 C8 H8B 110.8 . . ?
 H8A C8 H8B 108.9 . . ?
 Re1 O1 Hg1 163.2(4) . . ?
 O11 C4 C3 107.2(8) . . ?
 O11 C4 H4A 110.3 . . ?
 O11 C4 H4B 110.3 . . ?
 C3 C4 H4A 110.3 . . ?
 C3 C4 H4B 110.3 . . ?
 H4A C4 H4B 108.5 . . ?
 O11 C5 H5A 110.3 . . ?
 O11 C5 H5B 110.3 . . ?
 O11 C5 C6 107.2(8) . . ?
 H5A C5 H5B 108.5 . . ?
 C6 C5 H5A 110.3 . . ?
 C6 C5 H5B 110.3 . . ?
 O10 C2 C1 112.0(8) . . ?
 O10 C2 H2A 109.2 . . ?
 O10 C2 H2B 109.2 . . ?
 C1 C2 H2A 109.2 . . ?
 C1 C2 H2B 109.2 . . ?
 H2A C2 H2B 107.9 . . ?
 O12 C6 C5 110.2(8) . . ?
 O12 C6 H6A 109.6 . . ?
 O12 C6 H6B 109.6 . . ?
 C5 C6 H6A 109.6 . . ?
 C5 C6 H6B 109.6 . . ?
 H6A C6 H6B 108.1 . . ?

loop_
  _geom_torsion_atom_site_label_1
  _geom_torsion_atom_site_label_2
  _geom_torsion_atom_site_label_3
  _geom_torsion_atom_site_label_4
  _geom_torsion
  _geom_torsion_site_symmetry_1
  _geom_torsion_site_symmetry_2
  _geom_torsion_site_symmetry_3
  _geom_torsion_site_symmetry_4
  _geom_torsion_publ_flag
 Hg1 O9 C10 C9 -40.7(10) . . . . ?
 Hg1 O9 C1 C2 -50.3(8) . . . . ?
 Hg1 O10 C3 C4 -42.1(9) . . . . ?
 Hg1 O10 C2 C1 -39.0(10) . . . . ?
 Hg1 O12 C7 C8 47.1(9) . . . . ?
 Hg1 O12 C6 C5 26.7(10) . . . . ?
 Hg1 O11 C4 C3 -54.5(8) . . . . ?
 Hg1 O11 C5 C6 58.3(9) . . . . ?
 Hg1 O13 C9 C10 -47.8(10) . . . . ?
 Hg1 O13 C8 C7 51.3(8) . . . . ?
 O9 C10 C9 O13 58.2(11) . . . . ?
 O9 C1 C2 O10 61.3(11) . . . . ?
 O10 C3 C4 O11 64.5(9) . . . . ?
 O12 C7 C8 O13 -68.0(10) . . . . ?
 O3 Re1 O4 Hg1 86.9(13) . . . 2_666 ?
 O3 Re1 O1 Hg1 105.2(14) . . . . ?
 O11 C5 C6 O12 -54.6(11) . . . . ?
 O2 Re1 O4 Hg1 -31.8(14) . . . 2_666 ?
 O2 Re1 O1 Hg1 -134.4(13) . . . . ?
 C7 O12 C6 C5 149.2(8) . . . . ?
 C10 O9 C1 C2 -175.2(8) . . . . ?
 C1 O9 C10 C9 82.7(11) . . . . ?
 C9 O13 C8 C7 -173.9(8) . . . . ?
 O4 Re1 O1 Hg1 -13.8(15) . . . . ?
 C3 O10 C2 C1 93.2(10) . . . . ?
 C8 O13 C9 C10 179.0(8) . . . . ?
 O1 Re1 O4 Hg1 -152.3(13) . . . 2_666 ?
 C4 O11 C5 C6 179.8(8) . . . . ?
 C5 O11 C4 C3 -178.8(8) . . . . ?
 C2 O10 C3 C4 -173.2(7) . . . . ?
 C6 O12 C7 C8 -80.5(10) . . . . ?

_shelx_res_file
;
TITL msu_hg15c5_lt_0m_a.res in P-1
    msu_hg15c5_lt_0m.res
    created by SHELXL-2018/3 at 18:34:57 on 09-Dec-2024
REM Old TITL MSU_Hg15C5_LT_0m in P-1
REM SHELXT solution in P-1: R1 0.077, Rweak 0.008, Alpha 0.061
REM <I/s> 0.000 for 0 systematic absences, Orientation as input
REM Formula found by SHELXT: C17 N8 Re3
CELL 0.71073 7.9707 8.9714 15.4636 80.019 79.066 66.137
ZERR 2 0.0008 0.0008 0.0014 0.004 0.004 0.004
LATT 1
SFAC C H Hg O Re
UNIT 20 48 2 30 4
ISOR C9 C7 O4
ISOR O10
ISOR 0.005 0.01 C9 C7
ISOR 0.01 0.02 O4 O10
ISOR 0.01 0.02 O9 O4
ISOR 0.005 0.01 O4 O9
ISOR 0.005 0.01 C1 C3 C4 C6
EADP O13 O12 O11 O10 O9
ISOR 0.001 0.002 O4

L.S. 6 0 0
PLAN  3
SIZE 0.11 0.12 0.16
TEMP 23
CONF
BOND
list 4
MORE -1
BOND $H
ACTA
fmap 2 53
SHEL 5 0.5
OMIT -2 55
OMIT -5 -11 6
REM <olex2.extras>
REM <HklSrc "%.\\MSU_Hg15C5_LT_0m.hkl">
REM </olex2.extras>

WGHT    0.000000
EXTI    0.001326
FVAR       0.26920
HG1   3    0.666879    0.411326    0.285482    11.00000    0.00732    0.00768 =
         0.00408    0.00090    0.00015   -0.00404
RE2   5    0.208904    0.975216    0.098157    11.00000    0.01017    0.00867 =
         0.00665   -0.00034    0.00047   -0.00502
RE1   5    0.422955    0.258946    0.522605    11.00000    0.00772    0.00717 =
         0.00345    0.00115    0.00085   -0.00339
O9    4    0.809032    0.617044    0.216684    11.00000    0.01094    0.00948 =
         0.00724   -0.00056   -0.00113   -0.00420
AFIX   6
O15   4    0.175086    0.676608    0.453292    11.00000    0.00706    0.02332 =
         0.01762   -0.00382    0.00398   -0.00418
H15A  2    0.230268    0.633358    0.498781    11.00000   -1.50000
H15B  2    0.075876    0.658746    0.465393    11.00000   -1.50000
AFIX   0

O10   4    0.954431    0.346141    0.342090    11.00000    0.01094    0.00948 =
         0.00724   -0.00056   -0.00113   -0.00420
O14   4    0.369148    0.597282    0.289346    11.00000    0.00985    0.01000 =
         0.01146   -0.00306    0.00110   -0.00161
AFIX   7
H14A  2    0.366840    0.683350    0.255162    11.00000   -1.50000
H14B  2    0.330550    0.629745    0.340776    11.00000   -1.50000
AFIX   0

O5    4    0.313979    0.893007    0.193282    11.00000    0.02254    0.01107 =
         0.01860   -0.00174    0.00194   -0.00246
O12   4    0.526578    0.240831    0.227271    11.00000    0.01094    0.00948 =
         0.00724   -0.00056   -0.00113   -0.00420
O3    4    0.208972    0.257487    0.515871    11.00000    0.00591    0.02269 =
         0.01917   -0.00591    0.00123   -0.00326
O11   4    0.866912    0.116463    0.281976    11.00000    0.01094    0.00948 =
         0.00724   -0.00056   -0.00113   -0.00420
O13   4    0.650672    0.482456    0.125100    11.00000    0.01094    0.00948 =
         0.00724   -0.00056   -0.00113   -0.00420
O7    4    0.123043    1.186475    0.091799    11.00000    0.02070    0.01861 =
         0.01515   -0.00395    0.00138   -0.01104
O2    4    0.555513    0.074056    0.575383    11.00000    0.01017    0.01333 =
         0.02121    0.00509   -0.00137   -0.00541
O8    4    0.369348    0.908970    0.009086    11.00000    0.01927    0.02316 =
         0.01390   -0.00719    0.01068   -0.01288
C7    1    0.483782    0.315280    0.140863    11.00000    0.00661    0.00998 =
         0.00354   -0.00163    0.00187    0.00041
AFIX  23
H7A   2    0.374736    0.415964    0.145896    11.00000   -1.20000
H7B   2    0.454884    0.242349    0.112087    11.00000   -1.20000
AFIX   0
C10   1    0.767410    0.680068    0.127540    11.00000    0.01358    0.00846 =
         0.01597    0.00202   -0.00714   -0.00542
AFIX  23
H10A  2    0.853998    0.729149    0.097308    11.00000   -1.20000
H10B  2    0.643871    0.765043    0.129675    11.00000   -1.20000
AFIX   0
C1    1    1.003438    0.544493    0.221057    11.00000    0.00891    0.01408 =
         0.01551    0.00091   -0.00642   -0.00207
AFIX  23
H1A   2    1.056978    0.626782    0.204314    11.00000   -1.20000
H1B   2    1.063814    0.460072    0.181129    11.00000   -1.20000
AFIX   0
C9    1    0.778317    0.550805    0.077216    11.00000    0.00850    0.01701 =
         0.01431    0.00436   -0.00148   -0.00513
AFIX  23
H9A   2    0.745968    0.596600    0.018229    11.00000   -1.20000
H9B   2    0.902749    0.467305    0.071883    11.00000   -1.20000
AFIX   0

O6    4    0.032610    0.908699    0.100923    11.00000    0.01996    0.02505 =
         0.02028   -0.00586    0.00535   -0.01231
O4    4    0.385867    0.415080    0.583866    11.00000    0.00800    0.00867 =
         0.00816   -0.00060   -0.00037   -0.00307
C3    1    1.092483    0.187043    0.328524    11.00000    0.00550    0.01317 =
         0.00617   -0.00138   -0.00097    0.00064
AFIX  23
H3A   2    1.185192    0.156596    0.367889    11.00000   -1.20000
H3B   2    1.153115    0.185136    0.267855    11.00000   -1.20000
AFIX   0
C8    1    0.639248    0.353187    0.084562    11.00000    0.00546    0.01316 =
         0.01047   -0.00568   -0.00146    0.00012
AFIX  23
H8A   2    0.754142    0.257343    0.084576    11.00000   -1.20000
H8B   2    0.613021    0.390174    0.024013    11.00000   -1.20000
AFIX   0
O1    4    0.535930    0.289851    0.417963    11.00000    0.01796    0.01212 =
         0.01122    0.00268    0.00302   -0.00193
C4    1    0.993415    0.070787    0.348214    11.00000    0.01089    0.00879 =
         0.00590    0.00195   -0.00026   -0.00404
AFIX  23
H4A   2    1.081707   -0.041291    0.344782    11.00000   -1.20000
H4B   2    0.924787    0.079392    0.407309    11.00000   -1.20000
AFIX   0
C5    1    0.762250    0.012559    0.297113    11.00000    0.01649    0.01143 =
         0.01573    0.00308   -0.00296   -0.01135
AFIX  23
H5A   2    0.690141    0.022188    0.355417    11.00000   -1.20000
H5B   2    0.845181   -0.101152    0.293502    11.00000   -1.20000
AFIX   0
C2    1    1.028325    0.471261    0.315412    11.00000    0.02531    0.01082 =
         0.01479    0.00194   -0.00058   -0.01531
AFIX  23
H2A   2    1.159137    0.424729    0.321379    11.00000   -1.20000
H2B   2    0.966940    0.557206    0.354376    11.00000   -1.20000
AFIX   0
C6    1    0.637453    0.068372    0.227119    11.00000    0.00989    0.01245 =
         0.01246   -0.00308    0.00566   -0.00476
AFIX  23
H6A   2    0.710892    0.047166    0.169604    11.00000   -1.20000
H6B   2    0.557550    0.007522    0.237911    11.00000   -1.20000
AFIX   0
HKLF 4




REM  msu_hg15c5_lt_0m_a.res in P-1
REM wR2 = 0.0824, GooF = S = 1.003, Restrained GooF = 0.998 for all data
REM R1 = 0.0444 for 3630 Fo > 4sig(Fo) and 0.0609 for all 4529 data
REM 234 parameters refined using 54 restraints

END

WGHT      0.0000      0.0000

REM Highest difference peak  2.374,  deepest hole -1.869,  1-sigma level  0.431
Q1    1   0.6344  0.3180  0.3418  11.00000  0.05    2.37
Q2    1   0.7166  0.4961  0.2202  11.00000  0.05    2.10
Q3    1   0.1897  1.0469  0.0400  11.00000  0.05    1.89
;
_shelx_res_checksum                98679
_shelx_hkl_file
;
   1   0   0    0.50    2.80
  -2   0   0  493.45   50.89
  -2   0   0  617.24   50.99
  -2   0   0  578.54   47.90
   2   0   0  567.54   51.39
   2   0   0  576.64   59.09
   2   0   0  616.04   54.49
   2   0   0  591.14   71.79
  -3   0   0   86.19   24.30
  -3   0   0   78.39   28.60
   3   0   0  141.59   31.20
   3   0   0   98.89   25.60
  -4   0   0  113.59   34.50
  -4   0   0  220.38   55.29
   4   0   0  191.28   44.00
   4   0   0   99.69   32.30
  -5   0   0 1319.77  129.49
  -5   0   0 1412.06  143.99
   5   0   0 1378.66  132.89
   5   0   0 1505.25  136.29
  -6   0   0   33.50   41.00
   6   0   0   33.80   33.00
   6   0   0    4.00   24.90
  -7   0   0  273.67   84.29
   7   0   0  209.18   70.59
   7   0   0  369.26   90.49
   8   0   0  933.71  154.68
   8   0   0  993.10  160.88
   9   0   0 1175.08  190.58
  10   0   0  -24.20   53.79
   9  -1   0  551.94  135.09
   8  -1   0  376.36  103.29
   7  -1   0  618.94  113.79
   6  -1   0  784.22  121.29
  -6   1   0  947.01  121.39
   5  -1   0 3116.59  230.58
   5  -1   0 3280.17  251.67
  -5   1   0 2765.02  237.38
   4  -1   0  152.68   32.30
   4  -1   0  214.98   53.29
   4  -1   0  178.48   45.90
  -4   1   0  210.68   46.80
  -4   1   0  184.28   46.30
  -4   1   0  228.28   57.99
   3  -1   0  651.13   87.59
   3  -1   0  657.03   79.99
   3  -1   0  741.63   63.89
  -3   1   0  702.33   84.69
  -3   1   0  615.34   88.39
  -3   1   0  662.63   80.09
   2  -1   0  197.28   29.10
   2  -1   0  225.48   37.00
  -2   1   0  230.38   42.80
  -2   1   0  259.27   39.50
  -2   1   0  207.78   32.90
  -2   1   0  335.97   43.40
   1  -1   0  447.76   41.50
   1  -1   0  432.36   49.99
   1  -1   0  497.85   58.39
   1  -1   0  485.65   37.80
   1  -1   0  417.96   50.29
  -1   1   0  477.55   36.90
  -1   1   0  464.25   46.90
  -1   1   0  407.16   33.60
  -1   1   0  427.96   33.30
  -1   1   0  488.25   39.90
   0  -1   0   -1.70    3.90
   0  -1   0   -2.40    3.00
   0  -1   0   -0.10    4.40
   0   1   0   -0.70    3.60
   0   1   0    1.10    2.80
   0   1   0   -2.10    3.60
   0   1   0   -1.10    1.20
   0   1   0    0.70    1.60
  -1  -1   0    3.80    2.50
  -1  -1   0    1.10    2.00
   1   1   0    5.00    6.90
  -2  -1   0  142.49   25.30
  -2  -1   0  168.78   23.80
  -2  -1   0  145.39   20.50
  -2  -1   0  193.98   22.50
  -2  -1   0  183.88   21.70
  -2  -1   0  185.08   23.70
   2   1   0  143.79   21.70
   2   1   0  172.28   35.20
  -3  -1   0 6286.07  424.66
   3   1   0 6124.09  422.06
  -4  -1   0 5037.20  351.96
   4   1   0 4862.61  347.97
   4   1   0 4947.31  356.96
  -5  -1   0    4.30   17.20
   5   1   0   17.40   21.40
   5   1   0   -5.40   14.00
  -6  -1   0  280.07   78.89
   6   1   0  188.08   51.29
   6   1   0  231.78   62.89
  -7  -1   0  200.88   77.49
   7   1   0  137.39   54.29
   7   1   0  197.68   61.49
  -8  -1   0  565.04  135.79
   8   1   0  442.46   93.49
   8   1   0  516.55  104.69
   9   1   0  408.16  105.39
   9   1   0  105.19   68.59
  10   1   0  274.67  101.69
  10   1   0  165.38   87.29
   9  -2   0  323.07  108.59
  -9   2   0  376.06  135.49
   8  -2   0  103.19   68.59
  -8   2   0   -4.30   57.49
   7  -2   0  563.84  114.59
  -7   2   0  401.66  114.59
   6  -2   0  720.93  121.69
  -6   2   0  682.83  131.49
   5  -2   0  460.65   89.29
  -5   2   0  403.26   90.79
  -5   2   0  529.75   65.29
   4  -2   0 2376.36  200.28
  -4   2   0 2380.36  214.78
  -4   2   0 2374.46  175.48
   3  -2   0  417.46   64.39
  -3   2   0  378.66   45.10
  -3   2   0  292.87   60.99
  -3   2   0  295.97   63.09
   2  -2   0 5303.47  384.96
  -2   2   0 5367.26  367.66
  -2   2   0 5611.44  370.86
  -2   2   0 5789.92  399.86
   1  -2   0 1813.92  127.69
  -1   2   0 1695.53  113.09
  -1   2   0 1202.48  118.19
  -1   2   0 1775.12  135.49
  -1   2   0 1653.73  133.69
  -1   2   0 1635.04  113.19
   0  -2   0  469.15   52.29
   0  -2   0  332.47   45.70
   0   2   0  430.16   33.40
   0   2   0  347.97   32.60
   0   2   0  459.95   53.99
   0   2   0  388.46   43.90
  -1  -2   0  744.83   55.89
  -1  -2   0  880.61   72.39
  -1  -2   0  685.13   55.69
   1   2   0  725.83   64.89
   1   2   0  770.02   63.39
   1   2   0  658.53   64.69
  -2  -2   0 1052.89   77.99
  -2  -2   0 1193.18   98.09
  -2  -2   0 1003.30   77.29
  -2  -2   0 1066.19   79.69
  -2  -2   0 1056.09   81.39
   2   2   0 1008.40   80.79
   2   2   0  990.60   99.79
  -3  -2   0  116.79   22.50
  -3  -2   0  147.79   24.10
  -3  -2   0  198.08   32.80
  -3  -2   0  148.89   27.20
   3   2   0  194.68   30.30
   3   2   0  298.67   60.99
  -4  -2   0  640.84   63.89
  -4  -2   0  587.04   49.80
   4   2   0  745.43   76.39
  -5  -2   0 1033.60  101.49
   5   2   0 1187.98  103.79
  -6  -2   0 1823.52  164.68
   6   2   0 1977.90  165.38
   7   2   0 3592.04  311.47
   7   2   0 4022.30  304.87
  -8  -2   0  447.56  116.49
   8   2   0  258.57   74.29
   8   2   0  232.28   68.29
   9   2   0  170.68   75.09
   9   2   0   59.19   57.69
  10   2   0   14.20   62.59
  10   2   0   20.70   71.39
   8  -3   0   -3.20   48.80
  -8   3   0   -9.60   59.89
   7  -3   0  696.43  138.29
  -7   3   0  747.63  155.88
   6  -3   0   58.49   50.29
  -6   3   0   65.29   54.59
   5  -3   0  683.23  115.89
  -5   3   0  666.03  124.89
   4  -3   0  260.27   65.59
  -4   3   0  489.35   95.39
   3  -3   0 1701.33  148.19
  -3   3   0 1521.85  159.68
   2  -3   0  493.15   72.79
  -2   3   0  559.74   49.10
  -2   3   0  488.55   89.69
  -2   3   0  590.74   93.19
   1  -3   0 5017.30  366.06
  -1   3   0 5386.86  347.27
  -1   3   0 4752.82  374.26
  -1   3   0 5224.68  377.76
   0  -3   0 1916.31  132.69
   0   3   0 1716.43  129.19
   0   3   0 1792.42  144.69
  -1  -3   0 4449.06  303.37
   1   3   0 4384.06  304.07
   1   3   0 4579.44  321.77
   1   3   0 4393.06  314.57
   1   3   0 4585.74  318.07
  -2  -3   0 6278.77  417.46
  -2  -3   0 5999.40  423.46
  -2  -3   0 6485.45  421.96
  -2  -3   0 6393.36  423.66
   2   3   0 6154.78  443.76
  -3  -3   0   49.10   18.90
  -3  -3   0   28.00   12.90
  -3  -3   0   42.40   13.60
  -3  -3   0   13.50    9.70
   3   3   0   69.59   37.70
   3   3   0   10.90   13.30
  -4  -3   0  208.88   33.60
  -4  -3   0  156.68   32.00
  -4  -3   0  154.88   30.30
  -4  -3   0  188.38   38.10
   4   3   0  281.17   72.39
   4   3   0  134.19   31.10
  -5  -3   0  542.85   62.09
  -5  -3   0  549.65   73.39
  -5  -3   0  570.94   68.99
   5   3   0  628.34   75.49
  -6  -3   0    2.00   23.90
   6   3   0   38.80   26.10
  -7  -3   0    4.20   22.90
   7   3   0  -10.10   20.70
   8   3   0  704.53  115.59
  -9  -3   0  151.18   89.59
   9   3   0  117.29   54.59
  10   3   0 2399.36  292.57
  10   3   0 2352.96  297.07
   8  -4   0  175.18   87.59
  -8   4   0  142.99   99.69
  -8   4   0  305.47  139.59
   7  -4   0  342.27   97.19
  -7   4   0  293.57  107.99
   6  -4   0 1928.81  229.78
  -6   4   0 1645.84  241.88
   5  -4   0  263.17   75.39
  -5   4   0  313.97   92.29
   4  -4   0 1172.58  150.38
  -4   4   0 1119.59  166.98
  -4   4   0 1312.27  195.68
   3  -4   0  636.74  101.59
  -3   4   0  799.42  125.89
  -3   4   0  866.01  139.29
   2  -4   0  834.92  111.59
  -2   4   0  700.63  119.89
  -2   4   0  834.02   71.39
  -2   4   0  846.92  128.99
   1  -4   0  391.16   69.79
   1  -4   0  238.48   41.30
  -1   4   0  298.97   37.30
  -1   4   0  237.48   60.49
  -1   4   0  280.37   68.59
   0  -4   0  798.02   72.09
   0   4   0  865.91   86.79
   0   4   0  863.01   70.89
  -1  -4   0   92.49   21.40
   1   4   0  127.89   34.70
   1   4   0  130.69   38.40
   1   4   0   81.69   18.70
   1   4   0   78.59   28.40
  -2  -4   0 2183.88  155.18
  -2  -4   0 2028.70  154.98
   2   4   0 2108.29  179.38
   2   4   0 2158.98  170.58
  -3  -4   0 2609.34  196.88
  -3  -4   0 2772.02  198.48
  -3  -4   0 2744.53  196.08
   3   4   0 2806.42  229.58
  -4  -4   0   57.09   19.40
  -4  -4   0   48.90   19.00
  -4  -4   0   88.49   30.30
  -4  -4   0   88.69   27.30
   4   4   0  121.29   50.89
   4   4   0   92.39   28.60
  -5  -4   0 3923.61  313.97
  -5  -4   0 4469.55  313.07
  -5  -4   0 4374.26  314.87
  -5  -4   0 4531.35  310.57
   5   4   0 4017.50  356.56
   5   4   0 4482.85  314.57
  -6  -4   0  500.05   65.59
  -6  -4   0  546.55   78.59
  -6  -4   0  456.75   69.39
   6   4   0  573.14   79.89
  -7  -4   0   10.30   26.40
   7   4   0   22.10   27.60
   8   4   0  142.09   50.29
   9   4   0   17.30   38.60
 -10  -4   0  -31.00   73.49
  10   4   0   78.09   62.39
  11   4   0  228.08  100.79
   7  -5   0 1540.85  219.18
  -7   5   0  783.22  196.78
  -7   5   0  892.61  218.48
   6  -5   0   67.09   38.30
   6  -5   0   59.89   58.19
  -6   5   0   96.39   76.19
  -6   5   0   45.00   64.49
   5  -5   0  283.47   87.89
   5  -5   0  160.58   51.39
  -5   5   0  112.89   75.59
  -5   5   0  140.89   80.79
   4  -5   0  321.67   82.09
   4  -5   0  315.87   70.69
  -4   5   0  444.16  109.89
  -4   5   0  247.68   91.79
   3  -5   0 1858.81  201.08
   3  -5   0 1583.94  145.49
  -3   5   0 1528.85  206.38
  -3   5   0 1551.24  212.08
   2  -5   0 2543.55  223.48
   2  -5   0 2835.82  202.88
  -2   5   0 2180.68  234.58
  -2   5   0 2663.43  187.98
  -2   5   0 1931.91  219.58
   1  -5   0  233.58   46.00
   1  -5   0  171.38   58.99
  -1   5   0  248.28   37.20
  -1   5   0  279.47   68.19
   0  -5   0 1160.78   95.19
   0   5   0 1134.29  109.59
   0   5   0  949.01   88.89
  -1  -5   0  213.78   38.00
   1   5   0  138.79   48.20
   1   5   0  227.18   48.00
   1   5   0  264.17   39.00
  -2  -5   0  654.93   70.89
  -2  -5   0  428.86   62.29
   2   5   0  539.55   63.29
   2   5   0  519.45   91.49
   2   5   0  552.24   81.39
  -3  -5   0  738.13   69.99
  -3  -5   0  798.02   63.59
  -3  -5   0  686.53   78.39
   3   5   0  802.12  119.39
  -4  -5   0   74.59   23.50
  -4  -5   0  105.29   27.60
   4   5   0  100.69   32.80
   4   5   0  230.78   74.29
  -5  -5   0  288.47   55.59
  -5  -5   0  344.37   54.09
  -5  -5   0  398.26   57.69
   5   5   0  251.17   52.59
   5   5   0  199.18   72.29
  -6  -5   0 1294.87  135.89
  -6  -5   0 1622.44  134.89
  -6  -5   0 1487.15  139.29
  -6  -5   0 1703.33  139.39
   6   5   0 1572.24  138.49
   6   5   0 1283.17  195.18
   7   5   0  240.08   58.39
   8   5   0 2422.66  217.28
   9   5   0 1632.84  196.98
  10   5   0    9.50   45.90
  11   5   0  269.57  100.69
   6  -6   0  177.78   63.69
  -6   6   0  330.77  129.19
  -6   6   0  214.08  115.89
   5  -6   0   40.90   36.00
   5  -6   0    3.40   51.19
  -5   6   0   50.69   69.39
  -5   6   0   41.40   66.29
   4  -6   0 1234.58  173.68
   4  -6   0 1043.80  135.99
  -4   6   0 1259.67  208.38
  -4   6   0 1042.20  193.38
   3  -6   0  497.55  110.59
   3  -6   0  674.23   96.19
  -3   6   0  456.35  119.49
  -3   6   0  493.15  131.89
   2  -6   0   83.09   36.00
   2  -6   0  135.19   66.99
  -2   6   0  118.69   31.10
  -2   6   0   98.69   56.89
  -2   6   0  225.08   85.99
   1  -6   0  359.46   59.39
  -1   6   0  295.47   72.29
  -1   6   0  295.47   50.59
   0  -6   0 1429.26  133.79
   0   6   0 1725.73  153.68
   0   6   0 1793.32  134.89
  -1  -6   0 5414.56  367.56
   1   6   0 5049.59  380.16
   1   6   0 5098.79  408.36
   1   6   0 5067.99  363.66
  -2  -6   0  556.34   71.79
   2   6   0  485.55   87.69
   2   6   0  568.04  108.29
  -3  -6   0 2081.89  151.68
  -3  -6   0 1663.83  146.39
   3   6   0 2185.18  194.88
  -4  -6   0  124.79   33.80
  -4  -6   0  125.49   31.10
   4   6   0  131.89   55.89
  -5  -6   0  203.68   43.70
  -5  -6   0  244.88   47.80
  -5  -6   0  374.46   62.99
   5   6   0  215.58   76.39
   5   6   0  258.77   55.09
  -6  -6   0  322.97   58.59
  -6  -6   0  358.66   70.59
  -6  -6   0  269.57   54.79
   6   6   0  228.58   54.39
   6   6   0  229.48   86.09
  -7  -6   0  305.77   67.29
  -7  -6   0  210.48   54.19
  -7  -6   0  205.18   51.69
   7   6   0  314.27  104.69
   7   6   0  262.97   61.69
   8   6   0   13.20   30.90
   9   6   0  737.63  124.49
  10   6   0  861.91  147.29
   6  -7   0  165.68   68.59
  -6   7   0    5.90   92.99
   5  -7   0  418.56   93.49
  -5   7   0  433.46  148.39
  -5   7   0  326.27  131.19
   4  -7   0 1264.57  161.08
  -4   7   0  898.61  199.58
  -4   7   0 1198.28  213.88
   3  -7   0  -43.50   53.79
   3  -7   0   48.90   31.90
  -3   7   0   25.60   50.49
   2  -7   0  431.26   76.69
  -2   7   0  183.28   76.59
   1  -7   0  693.83   97.79
  -1   7   0  880.41  137.19
   0  -7   0 1175.18  110.89
   0   7   0 1028.60  140.29
  -1  -7   0  -12.70   14.50
   1   7   0   54.39   45.20
   1   7   0    7.40   25.70
  -2  -7   0  112.19   36.80
   2   7   0  139.99   45.00
   2   7   0   94.49   59.69
   2   7   0   67.89   40.90
  -3  -7   0  118.29   34.40
  -3  -7   0  115.59   32.70
   3   7   0   84.99   55.89
  -4  -7   0 3773.02  280.97
  -4  -7   0 3778.52  278.67
   4   7   0 3660.13  326.77
  -5  -7   0 1568.84  145.39
  -5  -7   0 1802.32  151.78
   5   7   0 1712.93  158.78
   5   7   0 2018.50  247.68
  -6  -7   0  522.55   81.59
  -6  -7   0  715.53  104.19
  -6  -7   0  536.25   85.29
   6   7   0  624.74   94.79
   6   7   0  559.64  129.19
  -7  -7   0  476.15   79.69
  -7  -7   0  357.56   70.09
  -7  -7   0  297.57   74.39
   7   7   0  401.36   79.29
   7   7   0  376.66  111.89
  -8  -7   0   59.09   37.00
   8   7   0   56.49   37.20
   9   7   0   32.00   46.70
  10   7   0   91.49   58.79
   5  -8   0  803.12  142.79
   4  -8   0   69.39   46.90
   3  -8   0  250.17   69.89
  -3   8   0   11.90   45.00
   2  -8   0   51.39   39.80
  -2   8   0   72.69   55.69
   1  -8   0 1556.34  150.68
  -1   8   0 1396.26  184.98
   0  -8   0  453.85   79.09
   0   8   0  324.57   77.39
  -1  -8   0  299.97   64.09
   1   8   0  126.09   66.49
   1   8   0  398.06   79.49
  -2  -8   0   19.20   24.10
   2   8   0   29.30   34.50
   2   8   0   -2.20   41.20
  -3  -8   0 1086.59  135.89
   3   8   0 2003.00  245.18
   3   8   0 1491.35  180.78
  -4  -8   0   -0.80   16.40
   4   8   0   44.90   48.50
  -5  -8   0   42.50   26.80
  -5  -8   0   20.90   21.10
   5   8   0   57.99   59.79
  -6  -8   0   60.59   33.60
  -6  -8   0   49.00   40.50
  -6  -8   0  -13.30   24.80
   6   8   0    9.20   23.40
   6   8   0   75.69   60.69
  -7  -8   0 1129.49  136.79
  -7  -8   0 1038.20  130.59
  -7  -8   0 1245.48  157.38
   7   8   0  893.91  130.89
   7   8   0  812.42  170.18
  -8  -8   0 2273.97  212.48
  -8  -8   0 2267.17  215.68
   8   8   0 2354.96  304.87
   8   8   0 2573.94  225.08
   9   8   0  -17.10   34.20
  10   8   0  454.25  106.29
   3  -9   0  410.06   93.39
   2  -9   0 1604.74  197.08
   1  -9   0  316.67   73.39
   0  -9   0  128.99   52.49
   0   9   0  114.49   83.59
   0   9   0  121.49   49.50
  -1  -9   0   95.09   45.60
   1   9   0   -0.90   51.99
   1   9   0   79.99   47.40
  -2  -9   0 1361.76  154.28
   2   9   0 1499.05  226.78
   2   9   0 1095.79  175.08
   3   9   0 1118.19  202.18
   3   9   0 1772.62  213.18
  -4  -9   0   66.19   31.60
   4   9   0   38.90   61.99
  -5  -9   0   97.29   38.50
  -5  -9   0   74.79   35.00
   5   9   0   57.79   53.59
  -6  -9   0  513.05  101.79
  -6  -9   0  539.05   88.99
  -6  -9   0  577.24   93.29
   6   9   0  691.23  160.98
   6   9   0  880.41  145.09
  -7  -9   0  399.46   79.49
  -7  -9   0  371.06   93.59
  -7  -9   0  488.55   89.09
   7   9   0  633.84  153.78
   7   9   0  301.47   79.09
  -8  -9   0    9.30   32.60
   8   9   0  129.19   83.49
   8   9   0   38.80   38.90
  -9  -9   0   36.00   45.90
   9   9   0   38.40   46.30
  10   9   0  213.88   86.39
   2 -10   0   78.09   67.99
   1 -10   0  629.34  114.99
  -1  10   0  513.95  153.78
   0 -10   0    6.70   35.50
   0  10   0   73.79   77.09
  -1 -10   0 1739.23  197.58
   1  10   0 1318.97  243.18
   2  10   0  547.65  159.18
   3  10   0   87.39   83.59
  -4 -10   0  474.75   82.89
   4  10   0  438.86  131.49
  -5 -10   0  421.66   80.99
   5  10   0  373.16  118.29
  -6 -10   0 2226.18  203.58
  -6 -10   0 1621.74  188.78
   6  10   0 1713.93  277.47
  -7 -10   0   48.50   48.20
  -7 -10   0   89.59   46.60
   7  10   0  138.09   56.99
   7  10   0  132.89   85.29
  -8 -10   0  108.09   54.49
   8  10   0  107.69   64.69
   8  10   0   -3.20   70.59
  -9 -10   0   34.70   54.79
   9  10   0   35.60   62.29
   9  10   0  161.18   70.99
   1 -11   0  256.57   88.39
  -1  11   0   98.69  103.59
   0  11   0   62.49   87.29
   1  11   0  451.85  149.99
   2  11   0  131.99  108.39
   3  11   0  310.37  142.39
   4  11   0  665.03  178.08
  -5 -11   0  755.22  116.09
   5  11   0  909.71  195.98
  -6 -11   0  323.97   77.39
  -6 -11   0  261.47   82.29
   6  11   0  255.67  114.69
  -7 -11   0  379.96   87.19
  -7 -11   0  223.18   81.39
   7  11   0  275.27  125.99
  -8 -11   0  -41.20   28.90
   8  11   0   25.40   66.59
   8  11   0   -9.60   41.70
   2  12   0  914.71  219.28
   3  12   0   61.09   91.99
   4  12   0  275.87  122.79
  -5 -12   0   44.60   31.70
   5  12   0   22.30   91.69
  -6 -12   0  376.46   86.19
  -6 -12   0  304.17   95.99
   6  12   0  321.17  141.69
   6  12  -1  117.89   98.09
  -6 -12   1   -2.60   39.80
  -6 -12   1  108.69   61.09
   5  12  -1  -11.60   77.59
  -5 -12   1   45.30   45.10
  -5 -12   1   28.20   40.50
   4  12  -1  551.14  163.08
   3  12  -1   41.70   86.19
   2  12  -1  179.38   94.99
   2  12  -1  229.38  124.39
   8  11  -1  421.96  103.09
  -8 -11   1  455.75  104.89
   7  11  -1  605.94  134.69
   7  11  -1  569.94  158.88
  -7 -11   1  540.25  111.49
  -7 -11   1  893.61  149.79
   6  11  -1  278.67  117.39
  -6 -11   1  525.75  113.09
  -6 -11   1  555.64  106.79
   5  11  -1 1789.02  279.37
  -5 -11   1 1553.44  185.28
   4  11  -1  359.56  130.09
   3  11  -1  288.87  128.29
   2  11  -1   -7.60   52.09
   2  11  -1   79.29   97.19
   1  11  -1  365.46  151.98
   0  11  -1  263.87  126.09
   9  10  -1   80.59   58.59
  -9 -10   1   20.50   53.99
   8  10  -1  294.77  117.39
   8  10  -1  176.48   66.99
  -8 -10   1  283.17   77.39
   7  10  -1    0.80   68.89
   7  10  -1  129.69   62.69
  -7 -10   1  105.69   57.99
  -7 -10   1  206.48   65.89
   6  10  -1    2.90   36.90
   6  10  -1   28.50   72.79
  -6 -10   1   10.30   41.10
  -6 -10   1  105.79   45.10
   5  10  -1  325.57  110.79
  -5 -10   1  175.68   49.99
   4  10  -1 1269.27  218.38
  -4 -10   1  950.30  125.49
   3  10  -1   -5.90   44.00
   3  10  -1  134.79   89.19
   2  10  -1 1551.44  228.58
   2  10  -1 1714.53  275.57
   1  10  -1  431.26  147.09
  -1 -10   1  805.82  130.29
   0  10  -1  324.97  134.39
   0 -10   1  188.18   69.19
   1 -10   1  300.77   87.39
   2 -10   1  205.38   80.89
   9   9  -1 1337.07  184.28
   8   9  -1   42.30   70.09
   8   9  -1   29.30   41.10
  -8  -9   1   28.80   42.60
   7   9  -1 1102.19  198.68
   7   9  -1  887.11  139.99
  -7  -9   1  874.71  133.29
  -7  -9   1 1482.15  187.98
   6   9  -1  162.98   65.79
   6   9  -1  203.68   91.59
  -6  -9   1  218.08   68.39
  -6  -9   1  233.28   62.89
  -6  -9   1  261.57   63.49
   5   9  -1  252.87   88.99
  -5  -9   1  264.57   59.69
  -5  -9   1  252.77   58.79
   4   9  -1  398.46  116.59
  -4  -9   1  482.35   77.29
   3   9  -1   25.70   64.89
   3   9  -1   50.79   49.00
   2   9  -1   46.30   45.40
   2   9  -1   19.70   60.99
  -2  -9   1    7.60   30.90
   1   9  -1  869.81  178.98
   1   9  -1 1103.19  135.39
  -1  -9   1  982.70  140.99
   0   9  -1  219.48  103.89
   0  -9   1  244.78   72.99
   1  -9   1 1212.78  166.08
   2  -9   1  973.60  148.19
   3  -9   1   78.59   53.39
  10   8  -1  -61.89   37.40
   9   8  -1   75.39   50.29
   8   8  -1  134.79   57.09
   8   8  -1   66.99   72.49
  -8  -8   1   58.89   40.60
   7   8  -1  321.67  103.49
   7   8  -1  155.08   56.69
  -7  -8   1  384.46   75.49
  -7  -8   1  254.27   61.09
  -7  -8   1  270.97   82.39
   6   8  -1 4080.89  352.76
   6   8  -1 3466.35  299.47
  -6  -8   1 3665.83  291.47
  -6  -8   1 3801.72  309.27
  -6  -8   1 3617.14  291.07
   5   8  -1  559.04  122.19
  -5  -8   1  534.95   82.09
  -5  -8   1  402.46   71.49
   4   8  -1 1106.79  175.48
  -4  -8   1  744.03   99.79
   3   8  -1  258.97   72.79
   3   8  -1  382.56  108.29
  -3  -8   1  429.06   74.39
   2   8  -1  140.39   60.39
   2   8  -1  128.99   72.69
  -2  -8   1  205.68   56.29
   1   8  -1  491.55  128.19
   1   8  -1  660.63  141.69
   1   8  -1  798.62  108.19
  -1  -8   1  864.11  118.49
   0   8  -1   69.39   38.00
   0  -8   1   34.60   30.30
  -1   8  -1  280.47   69.59
   1  -8   1  360.36   74.29
   2  -8   1  311.67   74.59
   3  -8   1  895.91  139.99
   4  -8   1  165.18   64.49
   5  -8   1  945.81  160.58
  10   7  -1  181.78   70.09
   9   7  -1  136.09   59.49
   8   7  -1   24.10   33.50
   7   7  -1   92.99   42.00
   7   7  -1   75.29   57.99
  -7  -7   1   -1.40   25.60
  -7  -7   1   44.80   41.10
  -7  -7   1   71.59   36.40
   6   7  -1  126.99   44.10
   6   7  -1   83.89   61.09
  -6  -7   1  220.08   58.59
  -6  -7   1  148.29   41.70
  -6  -7   1   86.79   34.70
   5   7  -1   37.20   28.40
   5   7  -1  -28.50   40.60
  -5  -7   1    3.50   16.50
  -5  -7   1    5.60   19.50
  -5  -7   1   24.50   26.70
   4   7  -1   32.60   39.10
  -4  -7   1   62.89   28.70
  -4  -7   1   48.10   24.90
   3   7  -1 2960.00  262.97
   3   7  -1 2929.91  245.28
  -3  -7   1 2804.92  212.08
  -3  -7   1 2426.06  214.28
   2   7  -1 2455.35  228.48
   2   7  -1 2740.33  247.98
  -2  -7   1 2399.86  203.78
   1   7  -1  125.79   57.29
   1   7  -1  295.67   87.39
   1   7  -1  218.98   53.99
  -1  -7   1  167.68   46.70
   0   7  -1  845.92  111.09
   0  -7   1  626.44   91.19
  -1   7  -1  463.45   88.39
   1  -7   1  269.47   60.49
  -2   7  -1  663.03  119.49
   2  -7   1  567.94   96.39
  -3   7  -1  366.06  103.89
   3  -7   1  352.56   73.09
   3  -7   1  378.26  115.99
  -4   7  -1  247.78  108.69
  -4   7  -1   97.49   73.69
   4  -7   1  163.08   58.19
   4  -7   1  152.48   84.79
  -5   7  -1  -25.70   77.09
   5  -7   1   -3.60   34.60
  -6   7  -1  913.61  243.68
   6  -7   1  615.64  129.59
  10   6  -1  262.17   86.89
   9   6  -1   30.40   42.70
   8   6  -1 2630.84  232.18
   7   6  -1 1371.06  162.98
  -7  -6   1 1321.07  164.78
  -7  -6   1 1596.24  165.68
   6   6  -1   49.60   55.29
   6   6  -1   56.69   35.50
  -6  -6   1   -4.20   20.50
  -6  -6   1   22.60   23.60
  -6  -6   1   27.50   32.90
   5   6  -1   75.09   52.99
   5   6  -1   -0.20   19.20
  -5  -6   1   29.30   20.50
  -5  -6   1   16.80   21.10
  -5  -6   1   37.00   27.90
   4   6  -1  204.88   62.99
  -4  -6   1  123.69   33.40
  -4  -6   1  209.48   41.30
   3   6  -1  189.18   61.09
  -3  -6   1  166.78   36.10
  -3  -6   1  149.19   40.60
   2   6  -1   -8.40   18.20
   2   6  -1   28.50   34.90
  -2  -6   1   78.49   31.60
   1   6  -1  112.29   30.00
   1   6  -1  173.98   62.89
   1   6  -1  125.79   40.30
   1   6  -1   94.89   44.30
  -1  -6   1  276.97   52.09
   0   6  -1 1556.44  129.19
   0   6  -1 1588.94  141.89
   0  -6   1 1555.54  135.89
  -1   6  -1 4144.19  333.17
  -1   6  -1 4238.08  309.47
   1  -6   1 4605.44  324.87
  -2   6  -1   76.59   51.89
  -2   6  -1   95.89   28.80
  -2   6  -1  122.29   64.79
   2  -6   1   73.79   34.30
   2  -6   1   35.10   50.69
  -3   6  -1  516.95  133.99
  -3   6  -1  549.65  119.99
   3  -6   1  620.24  126.99
   3  -6   1  538.25   87.69
  -4   6  -1   50.19   61.99
  -4   6  -1  187.88   85.19
   4  -6   1  116.69   47.60
   4  -6   1  200.78   75.39
  -5   6  -1  616.94  157.68
  -5   6  -1  482.85  135.79
   5  -6   1  433.36   92.59
   5  -6   1  415.36  109.99
  -6   6  -1  377.56  141.59
  -6   6  -1  564.34  172.98
   6  -6   1  389.86   92.69
   6  -6   1  379.76  114.39
  10   5  -1   37.30   55.59
   9   5  -1  331.67   86.89
   8   5  -1  125.89   51.49
   7   5  -1  510.85   87.49
  -7  -5   1  627.04   87.99
   6   5  -1  739.83  136.39
   6   5  -1  493.55   74.79
  -6  -5   1  436.26   79.79
  -6  -5   1  397.36   68.19
  -6  -5   1  404.96   68.79
  -6  -5   1  501.25   85.49
   5   5  -1 1792.62  221.18
   5   5  -1 2131.79  166.88
  -5  -5   1 1788.72  159.28
  -5  -5   1 1966.20  171.48
  -5  -5   1 2061.59  162.08
   4   5  -1 4474.85  362.66
  -4  -5   1 4617.84  321.27
  -4  -5   1 4075.69  319.77
  -4  -5   1 4783.22  332.37
   3   5  -1   15.60   22.80
  -3  -5   1   56.39   21.20
  -3  -5   1   63.89   22.10
  -3  -5   1    8.10   11.80
   2   5  -1  251.37   40.20
   2   5  -1  248.18   65.29
   2   5  -1  208.18   52.69
  -2  -5   1  317.87   52.59
   1   5  -1  175.68   42.40
   1   5  -1  226.78   56.49
   1   5  -1  148.39   48.80
   1   5  -1  206.08   36.10
  -1  -5   1  201.18   41.10
   0   5  -1  141.29   28.90
   0   5  -1  161.98   40.80
   0  -5   1  161.78   35.20
  -1   5  -1  447.86   54.49
  -1   5  -1  402.06   75.69
   1  -5   1  536.45   71.09
  -2   5  -1  451.75   55.59
  -2   5  -1  458.45   92.99
  -2   5  -1  263.27   80.79
   2  -5   1  466.75   70.19
   2  -5   1  439.26   95.59
  -3   5  -1  296.47   44.90
  -3   5  -1  355.36   94.49
  -3   5  -1  421.26  102.79
   3  -5   1  170.08   47.70
   3  -5   1  185.68   70.59
  -4   5  -1 2879.51  280.17
  -4   5  -1 2497.35  262.77
   4  -5   1 2495.25  248.78
   4  -5   1 2927.81  231.58
  -5   5  -1  674.33  150.18
  -5   5  -1  943.41  177.08
   5  -5   1  555.74  120.09
   5  -5   1  676.93  107.79
  -6   5  -1  106.09   84.79
  -6   5  -1  347.47  121.09
   6  -5   1  290.07   97.69
   6  -5   1  130.29   52.49
  -7   5  -1  197.08  108.19
  -7   5  -1  414.46  138.89
   7  -5   1  354.06  110.29
  10   4  -1  933.21  157.18
 -10  -4   1  859.01  189.68
   9   4  -1 1023.80  147.89
   8   4  -1   85.59   44.00
   7   4  -1   32.60   25.50
  -7  -4   1    8.90   28.20
   6   4  -1 1231.78  115.39
  -6  -4   1 1124.79  134.29
  -6  -4   1 1172.38  110.99
   5   4  -1  203.98   41.50
   5   4  -1  197.28   68.39
  -5  -4   1  210.28   50.19
  -5  -4   1  235.28   44.00
  -5  -4   1  234.18   51.89
  -5  -4   1  223.58   44.00
   4   4  -1  435.36   88.19
   4   4  -1  420.76   59.29
  -4  -4   1  434.66   56.19
  -4  -4   1  400.16   55.69
  -4  -4   1  372.66   67.99
  -4  -4   1  474.45   68.99
   3   4  -1 1367.46  143.59
  -3  -4   1 1617.04  124.69
  -3  -4   1 1627.84  123.59
   2   4  -1  111.59   37.00
   2   4  -1  104.99   31.30
   2   4  -1  117.39   25.60
  -2  -4   1  125.79   24.20
  -2  -4   1  133.99   31.50
   1   4  -1 6944.00  461.05
   1   4  -1 6668.53  485.55
   1   4  -1 6731.13  467.75
  -1  -4   1 6756.22  466.45
   0   4  -1 1626.34  133.39
   0   4  -1 1791.72  124.59
   0  -4   1 1492.35  127.19
  -1   4  -1  127.89   46.60
  -1   4  -1   72.39   18.50
  -1   4  -1   73.99   34.00
   1  -4   1  100.49   27.00
   1  -4   1  134.29   47.80
  -2   4  -1  142.49   55.69
  -2   4  -1  108.89   44.70
  -2   4  -1   97.69   21.30
   2  -4   1  116.79   49.10
   2  -4   1  138.49   33.10
  -3   4  -1   -8.10   28.30
  -3   4  -1   -5.00   28.40
   3  -4   1   16.30   29.20
   3  -4   1    9.90   18.70
  -4   4  -1  482.85  107.79
   4  -4   1  654.13   91.09
   4  -4   1  282.67   79.39
  -5   4  -1   39.50   46.70
   5  -4   1  111.19   44.80
   5  -4   1  170.18   67.49
  -6   4  -1  169.18   84.19
   6  -4   1  118.89   64.29
  -7   4  -1  904.71  188.88
   7  -4   1  852.01  157.28
  -8   4  -1  930.21  198.48
   8  -4   1  800.22  171.08
  10   3  -1  311.27  104.69
  10   3  -1  448.56  125.19
   9   3  -1  865.31  141.69
   9   3  -1 1018.20  176.48
  -9  -3   1 1167.38  208.48
   8   3  -1 1237.48  156.28
   7   3  -1  350.96   69.39
   6   3  -1 2543.15  210.38
  -6  -3   1 2728.33  217.98
   5   3  -1  222.28   43.60
  -5  -3   1  255.57   50.19
  -5  -3   1  273.37   48.00
   4   3  -1   99.09   41.70
   4   3  -1  134.29   29.70
  -4  -3   1   78.19   24.60
  -4  -3   1  108.19   26.60
  -4  -3   1   67.09   27.00
  -4  -3   1  108.29   31.50
   3   3  -1  366.86   48.50
   3   3  -1  414.16   73.69
  -3  -3   1  467.25   57.49
  -3  -3   1  313.47   43.30
  -3  -3   1  365.96   44.80
  -3  -3   1  210.08   45.30
   2   3  -1   68.99   26.00
  -2  -3   1   19.60   11.30
  -2  -3   1   24.20   11.80
  -2  -3   1   45.00   17.80
  -2  -3   1   32.90   15.80
   1   3  -1   79.39   27.80
   1   3  -1   43.30   21.20
   1   3  -1   43.00   14.00
  -1  -3   1   72.39   21.50
   0   3  -1  742.13   61.59
   0   3  -1  770.32   69.29
   0  -3   1  772.62   66.69
  -1   3  -1   50.99   26.00
  -1   3  -1   37.70   12.00
  -1   3  -1   64.89   31.50
   1  -3   1   15.10   24.10
   1  -3   1   27.90   15.70
  -2   3  -1 4239.58  285.07
  -2   3  -1 4352.46  324.07
   2  -3   1 4094.19  298.57
   2  -3   1 4035.30  312.67
  -3   3  -1 3338.57  274.77
   3  -3   1 3213.68  260.27
  -4   3  -1   55.69   41.10
   4  -3   1   21.10   30.80
  -5   3  -1   21.70   38.20
   5  -3   1   83.89   44.10
  -6   3  -1  -28.40   32.60
   6  -3   1   43.20   45.90
  -7   3  -1  427.36  130.09
   7  -3   1  386.66  106.89
  -8   3  -1   19.70   67.49
   8  -3   1   82.49   69.79
  10   2  -1  247.88   94.49
  10   2  -1  543.45  131.19
   9   2  -1  112.39   64.19
   9   2  -1  155.78   72.39
  -9  -2   1   13.20   66.59
   8   2  -1  220.28   78.19
   8   2  -1  276.17   69.39
  -8  -2   1  334.17  111.09
   7   2  -1  560.24  105.19
   7   2  -1  440.16   84.19
  -7  -2   1  768.92  142.59
   6   2  -1  653.63   88.59
  -6  -2   1  653.63   94.99
   5   2  -1 6009.40  413.26
  -5  -2   1 5680.03  418.16
   4   2  -1  446.46   56.09
  -4  -2   1  449.56   60.99
  -4  -2   1  386.86   49.80
   3   2  -1 5689.23  376.56
   3   2  -1 5301.17  401.96
  -3  -2   1 5235.08  385.36
  -3  -2   1 5782.52  383.06
  -3  -2   1 5440.06  378.26
  -3  -2   1 5505.75  377.06
   2   2  -1  877.91   86.39
  -2  -2   1  879.91   71.89
  -2  -2   1  795.92   78.59
  -2  -2   1  900.01   71.49
  -2  -2   1  902.71   76.29
  -2  -2   1  977.60   71.89
  -2  -2   1  800.12   94.29
   1   2  -1  439.76   49.10
   1   2  -1  471.05   45.40
   1   2  -1  465.05   56.69
   1   2  -1  374.26   43.00
  -1  -2   1  364.86   39.80
  -1  -2   1  358.96   54.39
  -1  -2   1  449.16   51.29
   0   2  -1 1313.67  104.89
   0   2  -1 1258.37   90.29
   0   2  -1 1279.37   90.39
   0   2  -1 1117.99   92.99
   0   2  -1 1251.27   98.89
   0  -2   1 1272.27  102.39
   0  -2   1 1297.87   94.89
  -1   2  -1  480.15   38.50
  -1   2  -1  546.05   67.59
  -1   2  -1  467.05   38.60
   1  -2   1  448.16   45.00
   1  -2   1  494.15   65.09
  -2   2  -1  128.89   17.60
  -2   2  -1  127.59   17.10
  -2   2  -1   99.59   33.80
   2  -2   1  146.49   35.10
  -3   2  -1  994.70  101.49
  -3   2  -1  986.50  123.09
   3  -2   1 1166.48  107.09
  -4   2  -1  957.70   75.79
  -4   2  -1 1054.19  142.19
   4  -2   1 1201.88  133.19
  -5   2  -1  795.82  137.49
  -5   2  -1 1165.38   85.39
   5  -2   1  936.11  135.19
  -6   2  -1 3330.37  320.37
   6  -2   1 3913.61  314.37
  -7   2  -1   51.69   54.59
   7  -2   1   84.39   62.89
  -8   2  -1   28.90   59.09
   8  -2   1   22.60   51.19
  -9   2  -1   95.29   95.29
   9  -2   1   67.09   65.89
  10   1  -1  783.42  162.38
   9   1  -1   16.90   59.19
   9   1  -1  147.99   74.19
   8   1  -1  643.14  114.69
   8   1  -1  528.65  111.99
  -8  -1   1  503.85  138.59
   7   1  -1   93.69   48.00
   7   1  -1  209.48   67.39
  -7  -1   1  184.08   77.29
   6   1  -1 1380.16  149.29
   6   1  -1 1370.36  160.48
  -6  -1   1 1267.97  182.58
   5   1  -1   74.49   29.40
  -5  -1   1   54.39   28.20
   4   1  -1  457.45   60.89
  -4  -1   1  577.64   71.09
   3   1  -1  437.46   47.50
  -3  -1   1  438.36   37.70
  -3  -1   1  365.26   50.39
   2   1  -1 4528.55  305.97
   2   1  -1 4159.28  323.47
   2   1  -1 4747.82  321.57
  -2  -1   1 4873.81  313.47
  -2  -1   1 4669.13  307.67
  -2  -1   1 4160.98  312.37
   1   1  -1 4129.79  266.07
   1   1  -1 3427.46  256.67
  -1  -1   1 3411.66  252.87
  -1  -1   1 4067.19  254.67
  -1  -1   1 3858.11  261.77
  -1  -1   1 3837.12  254.17
   0   1  -1    1.80    2.60
   0   1  -1    0.40    5.00
   0   1  -1   -0.80    3.30
   0  -1   1    6.40    5.30
  -1   1  -1 4425.56  301.07
  -1   1  -1 4526.95  293.87
  -1   1  -1 4344.07  306.77
  -1   1  -1 4537.15  292.97
   1  -1   1 4634.44  302.07
   1  -1   1 4212.98  306.87
   1  -1   1 4301.57  315.07
  -2   1  -1  532.85   71.69
  -2   1  -1  598.24   55.59
  -2   1  -1  567.64   60.19
  -2   1  -1  655.73   47.30
  -2   1  -1  603.24   44.30
   2  -1   1  694.03   73.79
  -3   1  -1   93.19   22.80
  -3   1  -1   49.50   20.80
  -3   1  -1   34.10   24.60
   3  -1   1   33.80   22.30
  -4   1  -1  387.26   56.79
  -4   1  -1  349.87   63.79
  -4   1  -1  393.96   79.49
   4  -1   1  446.06   74.69
  -5   1  -1   31.90   20.50
  -5   1  -1    0.00   25.80
   5  -1   1   -1.90   25.10
  -6   1  -1   76.59   29.80
  -6   1  -1   22.20   35.90
   6  -1   1  -13.40   26.90
  -7   1  -1 1066.29  180.08
   7  -1   1 1016.40  153.08
  -8   1  -1   18.30   43.30
   8  -1   1   19.40   48.30
  -9   1  -1 1864.71  278.77
   9  -1   1 1698.43  240.28
  10   0  -1   -3.60   59.79
   9   0  -1   47.00   52.69
   8   0  -1  277.57   86.09
   8   0  -1  359.36   94.79
   7   0  -1 2395.16  232.78
   7   0  -1 2915.61  240.38
  -7   0   1 2229.88  241.48
   6   0  -1  941.41  126.79
   6   0  -1  928.41  130.59
  -6   0   1  987.30  156.08
   5   0  -1  653.53   92.49
   5   0  -1  546.45   84.49
  -5   0   1  535.95   84.99
  -5   0   1  617.54  107.89
   4   0  -1    7.60   18.70
   4   0  -1  116.19   35.30
  -4   0   1   76.29   27.50
  -4   0   1   51.19   35.40
   3   0  -1  744.43   71.59
  -3   0   1  995.90  113.09
  -3   0   1  835.22   77.79
   2   0  -1   11.60    9.60
   2   0  -1   10.00   15.20
   2   0  -1    7.00   15.10
  -2   0   1   -4.30   12.20
  -2   0   1    9.50    8.40
  -2   0   1    8.10   10.40
   1   0  -1  223.18   32.40
   1   0  -1  309.37   31.10
  -1   0   1  272.07   28.50
  -1   0   1  349.57   27.80
   0   0  -1   -1.40    2.20
   0   0  -1    0.00    1.00
   0   0  -1    1.20    2.40
   0   0  -1   -0.50    1.10
  -1   0  -1   -4.40    3.00
  -1   0  -1   -0.40    5.80
  -1   0  -1   -0.10    2.10
  -2   0  -1 7890.51  535.65
  -2   0  -1 7661.33  521.95
  -2   0  -1 7859.81  526.55
  -2   0  -1 7955.30  521.15
  -2   0  -1 7625.64  529.45
   2   0   1 7810.12  528.45
   2   0   1 7946.60  527.95
  -3   0  -1   12.70   13.70
  -3   0  -1   -2.70    8.30
  -3   0  -1    6.00   14.10
  -3   0  -1   49.10   24.20
   3   0   1   64.69   22.70
   3   0   1   18.40   15.70
  -4   0  -1 2689.83  212.18
  -4   0  -1 2803.62  216.38
   4   0   1 2727.23  215.78
   4   0   1 2850.71  216.88
  -5   0  -1  547.65   91.69
  -5   0  -1  545.85   81.19
   5   0   1  561.24   84.89
   5   0   1  496.55   81.49
  -6   0  -1   78.69   47.00
   6   0   1   27.00   34.20
   6   0   1   30.30   36.10
  -7   0  -1  442.76   94.79
   7   0   1  295.27   79.69
   7   0   1  448.66   98.69
   8   0   1   69.99   54.29
   8   0   1  -22.50   35.70
   9   0   1   34.30   54.09
  10   0   1  262.87   98.49
   9  -1  -1   37.40   59.59
   8  -1  -1 1831.52  227.68
   7  -1  -1  395.26   95.19
   7  -1  -1  228.98   53.89
   6  -1  -1  -19.80   12.00
   6  -1  -1    3.70   28.60
  -6   1   1   40.60   35.30
   5  -1  -1   -4.60   22.70
   5  -1  -1   35.80   20.90
  -5   1   1   44.90   32.10
   4  -1  -1 1942.91  179.08
   4  -1  -1 2157.38  163.48
   4  -1  -1 2250.87  176.88
  -4   1   1 1875.21  179.58
  -4   1   1 2225.18  177.78
   3  -1  -1 3617.94  255.57
   3  -1  -1 3464.65  245.18
   3  -1  -1 3422.56  259.37
  -3   1   1 3084.99  261.07
  -3   1   1 3682.83  258.17
   2  -1  -1  152.08   42.20
   2  -1  -1  181.98   27.20
   2  -1  -1  209.88   33.20
  -2   1   1  230.68   36.90
  -2   1   1  212.98   43.90
   1  -1  -1 2044.40  140.29
   1  -1  -1 2024.20  137.89
   1  -1  -1 2060.89  149.79
   1  -1  -1 1958.20  144.59
   1  -1  -1 1821.22  147.09
  -1   1   1 1968.90  146.09
  -1   1   1 1999.70  140.49
   0  -1  -1   -1.50    3.10
   0  -1  -1    3.30    3.40
   0  -1  -1   -1.00    1.00
   0  -1  -1    2.80    2.70
   0   1   1    1.10    2.70
   0   1   1    3.60    7.60
   1   1   1  233.38   36.90
  -2  -1  -1 1605.64  111.19
  -2  -1  -1 1647.74  119.49
  -2  -1  -1 1696.03  115.49
  -2  -1  -1 1731.83  117.49
  -2  -1  -1 1602.04  113.19
  -2  -1  -1 1602.64  130.29
   2   1   1 1648.94  119.09
   2   1   1 1568.64  131.69
   2   1   1 1600.44  142.09
  -3  -1  -1  368.16   45.90
  -3  -1  -1  310.17   34.70
  -3  -1  -1  350.96   57.69
  -3  -1  -1  375.46   47.50
   3   1   1  395.96   48.60
  -4  -1  -1  682.33   95.29
  -4  -1  -1  690.93   69.39
   4   1   1  715.73   80.69
  -5  -1  -1 5313.67  394.46
   5   1   1 5755.12  404.26
   5   1   1 5495.55  396.56
   6   1   1  730.63  108.19
   6   1   1  723.93  101.49
  -7  -1  -1 1857.51  190.38
   7   1   1 1646.14  192.88
   7   1   1 1689.13  198.78
  -8  -1  -1  910.11  161.28
   8   1   1  607.74  124.19
   8   1   1  848.62  139.09
   9   1   1   80.39   56.69
   9   1   1  169.78   74.79
  10   1   1  289.77  102.09
   9  -2  -1  333.77  113.19
   8  -2  -1  423.76  111.29
   7  -2  -1  337.77   91.59
   6  -2  -1  -20.60   32.80
  -6   2   1   21.70   22.90
  -6   2   1   37.10   40.40
   5  -2  -1 2420.36  204.78
   5  -2  -1 2206.78  182.98
  -5   2   1 2257.97  217.58
  -5   2   1 2240.18  181.18
   4  -2  -1  887.21   87.39
   4  -2  -1 1062.99  122.69
  -4   2   1  800.62  122.59
  -4   2   1 1013.50   91.69
   3  -2  -1  156.28   40.00
   3  -2  -1   89.89   23.30
  -3   2   1  192.68   37.60
  -3   2   1   91.99   39.00
   2  -2  -1   41.30   14.60
   2  -2  -1   74.69   23.50
   2  -2  -1   63.99   23.70
  -2   2   1   73.49   21.70
  -2   2   1   52.69   26.70
   1  -2  -1 2884.81  201.48
   1  -2  -1 2835.72  196.48
   1  -2  -1 2823.42  191.98
   1  -2  -1 2666.83  207.38
  -1   2   1 2812.02  189.68
  -1   2   1 2992.60  213.28
  -1   2   1 2745.23  213.78
  -1   2   1 2592.34  194.28
  -1   2   1 2687.53  190.48
   0  -2  -1 7597.14  542.85
   0  -2  -1 8226.98  544.95
   0  -2  -1 8484.85  552.04
   0  -2  -1 8262.27  551.04
   0   2   1 8207.88  539.95
   0   2   1 8080.29  540.55
   0   2   1 8559.04  546.45
   0   2   1 8029.10  560.04
  -1  -2  -1  610.24   55.09
  -1  -2  -1  668.63   59.59
  -1  -2  -1  640.74   47.30
   1   2   1  456.05   62.69
   1   2   1  623.44   58.69
  -2  -2  -1 1317.97   88.99
  -2  -2  -1 1454.05  111.49
  -2  -2  -1 1188.38   89.69
  -2  -2  -1 1258.07   91.39
  -2  -2  -1 1173.38  106.39
  -2  -2  -1 1353.76   93.69
   2   2   1 1266.47  119.39
  -3  -2  -1    8.80    7.80
  -3  -2  -1   12.50    8.90
  -3  -2  -1    7.00    6.90
  -3  -2  -1   10.80    9.60
  -3  -2  -1   40.60   24.20
  -3  -2  -1   -5.20   11.00
   3   2   1   -9.10   22.60
   3   2   1    8.10   10.20
  -4  -2  -1 1218.78   88.29
  -4  -2  -1 1082.69   89.49
  -4  -2  -1 1035.60   92.69
   4   2   1 1133.99   96.29
  -5  -2  -1   39.60   20.30
  -5  -2  -1    4.40   28.50
   5   2   1   39.50   22.70
  -6  -2  -1   40.00   27.10
   6   2   1   69.89   34.50
   7   2   1  -19.10   25.10
  -8  -2  -1 2367.16  252.97
   8   2   1 2509.15  231.68
   8   2   1 2516.95  236.68
   9   2   1 1445.06  209.38
   9   2   1 1615.94  201.98
  10   2   1  130.69   81.59
  10   2   1   82.79   60.49
   8  -3  -1   92.49   70.39
  -8   3   1  141.99   81.29
   7  -3  -1  154.18   73.29
  -7   3   1  226.48   89.79
   6  -3  -1  440.16   98.99
  -6   3   1  187.78   73.69
   5  -3  -1 1429.76  172.98
  -5   3   1 1606.94  205.98
  -5   3   1 1377.66  116.79
   4  -3  -1   24.10   31.30
  -4   3   1   55.09   40.20
  -4   3   1   21.40   16.70
   3  -3  -1 1014.10  114.89
  -3   3   1  820.92   74.79
  -3   3   1  804.22  118.79
   2  -3  -1 1113.39  104.69
   2  -3  -1 1133.19  103.09
  -2   3   1 1008.30  130.39
  -2   3   1 1433.36  159.68
   1  -3  -1 1542.35  125.79
  -1   3   1 1524.95  114.79
  -1   3   1 1703.53  146.79
  -1   3   1 1520.25  146.29
   0   3   1   96.19   16.90
   0   3   1  109.29   35.20
  -1  -3  -1  128.29   31.20
   1   3   1  105.79   18.60
   1   3   1  116.69   33.70
   1   3   1   81.69   27.10
  -2  -3  -1  218.08   24.80
  -2  -3  -1  226.08   48.90
  -2  -3  -1  151.58   24.10
  -2  -3  -1  304.67   53.69
  -2  -3  -1  147.89   22.60
   2   3   1  120.29   36.80
  -3  -3  -1 5272.27  358.36
  -3  -3  -1 5211.58  355.06
  -3  -3  -1 5403.76  355.76
  -3  -3  -1 4776.12  379.26
  -3  -3  -1 5540.65  354.56
   3   3   1 5093.39  361.26
   3   3   1 5173.18  398.56
  -4  -3  -1 5452.95  368.86
  -4  -3  -1 5468.35  366.46
  -4  -3  -1 5619.34  370.06
  -4  -3  -1 5266.37  367.06
  -4  -3  -1 5292.07  407.96
   4   3   1 5227.48  418.06
   4   3   1 5067.29  372.36
  -5  -3  -1  385.86   54.29
  -5  -3  -1  409.56   50.49
  -5  -3  -1  333.17   93.79
  -5  -3  -1  317.27   32.60
  -5  -3  -1  324.27   47.70
   5   3   1  379.86   56.69
  -6  -3  -1  204.58   46.10
   6   3   1  293.67   55.09
  -7  -3  -1  340.67   67.49
   7   3   1  282.67   65.19
   8   3   1   28.50   37.30
   9   3   1  163.78   60.79
  10   3   1   16.10   50.29
  10   3   1   -6.20   50.39
   8  -4  -1   96.89   78.29
  -8   4   1   95.59   92.39
  -8   4   1  157.18  115.99
   7  -4  -1  580.04  132.69
  -7   4   1  481.35  135.49
  -7   4   1  263.27  116.69
   6  -4  -1 1047.20  163.08
  -6   4   1  957.40  177.08
   5  -4  -1  341.87   83.89
  -5   4   1  256.07   84.79
   4  -4  -1  409.96   79.49
  -4   4   1  523.05  118.39
  -4   4   1  267.17   86.19
   3  -4  -1   17.70   27.20
  -3   4   1   23.20   29.10
  -3   4   1    8.50   35.10
   2  -4  -1 1957.70  169.08
  -2   4   1 2048.30  150.58
  -2   4   1 1905.71  192.98
  -2   4   1 1983.40  190.88
   1  -4  -1  689.83   87.29
  -1   4   1  619.24   57.89
  -1   4   1  649.04  103.99
  -1   4   1  621.04  102.99
   0   4   1  725.43  102.39
   0   4   1  768.82   64.69
  -1  -4  -1  337.57   38.80
   1   4   1  358.46   62.89
   1   4   1  317.57   39.80
   1   4   1  334.87   61.99
  -2  -4  -1 4507.35  300.77
  -2  -4  -1 4188.18  294.87
   2   4   1 4572.54  321.47
   2   4   1 4246.77  327.77
  -3  -4  -1  182.38   27.70
  -3  -4  -1  182.78   28.90
  -3  -4  -1  167.88   29.40
   3   4   1  147.79   50.19
  -4  -4  -1  102.29   23.50
  -4  -4  -1  120.29   25.80
  -4  -4  -1   58.29   21.10
   4   4   1   69.99   23.60
   4   4   1  126.19   56.79
  -5  -4  -1   32.40   16.90
  -5  -4  -1   13.40   13.50
  -5  -4  -1   25.20   16.80
  -5  -4  -1   21.10   16.80
   5   4   1   29.00   22.90
   5   4   1   26.70   40.00
  -6  -4  -1 1648.94  123.69
  -6  -4  -1 1641.34  139.19
  -6  -4  -1 1523.25  133.59
  -6  -4  -1 1547.15  137.09
   6   4   1 1669.23  143.39
  -7  -4  -1 4206.78  310.27
   7   4   1 3836.12  311.17
   8   4   1   47.80   37.20
   9   4   1  216.68   70.29
  10   4   1   10.20   49.80
  11   4   1  -56.59   55.39
   7  -5  -1   93.69   80.39
  -7   5   1  248.88  111.39
  -7   5   1  390.76  126.19
   6  -5  -1  342.87   76.29
   6  -5  -1  159.08   73.79
  -6   5   1  197.58  106.59
  -6   5   1  341.07  110.39
   5  -5  -1 1003.00  153.88
  -5   5   1  727.33  154.18
  -5   5   1  851.91  173.28
   4  -5  -1  361.66   82.99
  -4   5   1  123.59   70.09
  -4   5   1  251.17   87.99
   3  -5  -1 2326.87  212.38
  -3   5   1 2292.57  287.17
  -3   5   1 2427.36  242.58
   2  -5  -1  693.53  110.59
  -2   5   1  848.92   78.39
  -2   5   1  946.81  146.49
  -2   5   1  859.01  142.89
   1  -5  -1  557.84   98.59
  -1   5   1  860.31   75.59
  -1   5   1 1242.28  160.88
   0  -5  -1  498.65   61.59
   0   5   1  502.95   57.29
   0   5   1  527.25   92.49
  -1  -5  -1 2839.62  206.58
   1   5   1 2828.92  229.48
   1   5   1 2898.31  241.78
   1   5   1 3014.80  210.98
  -2  -5  -1 2120.99  150.48
  -2  -5  -1 2085.39  152.88
   2   5   1 1933.51  182.78
   2   5   1 1926.61  170.08
   2   5   1 2080.79  154.18
   2   5   1 1908.31  170.48
  -3  -5  -1  734.83   72.29
  -3  -5  -1  875.81   72.89
   3   5   1  669.63  109.59
  -4  -5  -1  123.09   27.30
  -4  -5  -1   95.29   23.80
   4   5   1   93.79   51.09
  -5  -5  -1 1545.45  127.99
  -5  -5  -1 1460.75  129.09
   5   5   1 1679.63  218.38
   5   5   1 1667.43  137.29
  -6  -5  -1  632.24   78.79
  -6  -5  -1  614.64   79.09
  -6  -5  -1  473.65   73.59
  -6  -5  -1  523.95   75.49
   6   5   1  378.06   68.39
   6   5   1  617.84  131.39
  -7  -5  -1  399.86   69.49
  -7  -5  -1  366.96   65.19
   7   5   1  361.46   70.19
   8   5   1  354.06   76.59
   9   5   1  178.18   62.99
  10   5   1 2410.66  277.87
  11   5   1  385.76  113.99
   6  -6  -1  462.95  101.09
  -6   6   1  208.88  101.09
  -6   6   1  365.16  134.89
   5  -6  -1  125.29   52.99
   5  -6  -1  185.48   84.29
  -5   6   1  237.98  105.99
  -5   6   1   69.59   75.59
   4  -6  -1  195.58   57.99
   4  -6  -1  216.48   77.79
  -4   6   1  195.48  103.29
  -4   6   1  194.48   89.19
   3  -6  -1    1.20   19.10
   3  -6  -1   68.69   48.30
  -3   6   1  -12.80   42.10
  -3   6   1   32.50   56.69
   2  -6  -1 1302.97  174.48
   2  -6  -1 1291.57  129.29
  -2   6   1 1610.14  219.98
  -2   6   1 1505.55  124.19
   1  -6  -1    9.50   17.60
  -1   6   1    8.40   14.70
  -1   6   1    8.80   33.30
   0  -6  -1 2217.78  171.58
   0   6   1 2215.28  168.38
   0   6   1 2056.59  193.78
  -1  -6  -1 1730.83  136.09
   1   6   1 1588.54  156.18
   1   6   1 1753.12  137.99
   1   6   1 1818.62  205.98
  -2  -6  -1  677.23   66.29
   2   6   1  830.02  110.39
   2   6   1  516.05  100.79
  -3  -6  -1 2011.40  155.88
  -3  -6  -1 1906.81  147.59
   3   6   1 2329.67  204.58
  -4  -6  -1  338.37   50.99
  -4  -6  -1  335.67   52.99
   4   6   1  441.46   96.29
  -5  -6  -1 3380.96  250.27
  -5  -6  -1 3391.56  253.47
   5   6   1 3390.06  261.07
   5   6   1 3203.98  308.27
  -6  -6  -1   91.89   34.40
  -6  -6  -1  102.89   33.70
  -6  -6  -1   65.39   32.40
   6   6   1  111.09   36.30
   6   6   1   51.39   55.99
  -7  -6  -1  297.47   59.19
  -7  -6  -1  283.07   58.09
  -7  -6  -1  285.07   63.39
   7   6   1  386.16  112.69
   7   6   1  231.88   57.99
  -8  -6  -1  189.18   57.69
   8   6   1  173.08   54.29
   9   6   1  675.83  114.29
  10   6   1   -7.10   40.70
  11   6   1    2.00   49.00
   6  -7  -1   43.70   45.30
  -6   7   1   56.19   91.49
   5  -7  -1  278.07   77.09
  -5   7   1  316.47  124.89
  -5   7   1  229.38  117.39
   4  -7  -1  254.37   69.09
  -4   7   1  230.98  105.19
  -4   7   1  169.68  100.49
   3  -7  -1  332.57   69.29
   3  -7  -1  271.77   89.29
  -3   7   1  309.47  108.09
   2  -7  -1  847.22  114.69
  -2   7   1  867.21  156.88
   1  -7  -1   28.00   23.90
  -1   7   1    0.90   28.00
   0  -7  -1  199.48   43.30
   0   7   1   88.69   45.60
  -1  -7  -1  858.31   95.79
   1   7   1  709.83  114.09
   1   7   1 1023.30  158.68
  -2  -7  -1  787.92   94.79
   2   7   1  698.73  133.89
   2   7   1 1041.90  131.29
  -3  -7  -1 1170.28  108.09
  -3  -7  -1 1269.17  107.09
   3   7   1 1245.58  176.08
  -4  -7  -1 1728.83  142.99
  -4  -7  -1 1710.43  145.19
   4   7   1 1767.32  219.68
  -5  -7  -1  414.06   65.19
  -5  -7  -1  589.64   77.09
   5   7   1  369.56  109.69
  -6  -7  -1 1014.40  125.19
  -6  -7  -1  909.81  111.79
  -6  -7  -1 1099.09  118.79
   6   7   1 1091.09  189.28
   6   7   1  839.12  117.59
  -7  -7  -1   51.89   33.80
  -7  -7  -1   65.49   40.10
  -7  -7  -1   36.00   29.00
   7   7   1   58.19   64.79
   7   7   1   60.29   37.00
  -8  -7  -1 1899.91  189.58
  -8  -7  -1 1450.05  167.68
   8   7   1 1340.97  170.78
   9   7   1  491.15  100.19
  10   7   1  124.29   59.89
   5  -8  -1   42.50   40.60
   4  -8  -1 1872.51  214.38
  -4   8   1 1191.38  229.08
   3  -8  -1  532.05   97.49
  -3   8   1  601.04  147.99
   2  -8  -1  430.66   87.19
  -2   8   1  375.26  108.79
   1  -8  -1  438.56   82.19
  -1   8   1  268.87   83.99
   0  -8  -1  333.37   66.79
   0   8   1  356.56   91.39
  -1  -8  -1 1309.87  126.29
   1   8   1 1332.37  169.98
   1   8   1 1732.33  221.88
  -2  -8  -1   28.70   25.50
   2   8   1    5.70   28.90
   2   8   1  -10.50   37.80
  -3  -8  -1  471.85   79.59
   3   8   1  526.05  121.79
  -4  -8  -1  266.87   51.09
   4   8   1  233.98   87.49
  -5  -8  -1 1309.17  125.29
  -5  -8  -1 1289.77  139.59
   5   8   1 1405.66  216.38
  -6  -8  -1   52.29   26.10
  -6  -8  -1   49.00   28.60
   6   8   1   85.89   71.89
   6   8   1   21.50   32.80
  -7  -8  -1  903.41  127.29
  -7  -8  -1 1096.29  135.49
  -7  -8  -1 1124.19  144.19
   7   8   1 1359.26  220.68
   7   8   1  873.41  134.59
  -8  -8  -1  344.47   74.79
  -8  -8  -1  411.86   83.99
   8   8   1  198.28   65.49
   8   8   1  295.37  105.29
  -9  -8  -1  884.01  133.39
   9   8   1  892.21  137.19
  10   8   1  489.25  114.79
   3  -9  -1   33.10   49.00
   2  -9  -1   37.20   43.20
   1  -9  -1 1182.38  148.89
  -1   9   1 1198.98  176.98
   0  -9  -1 1881.61  176.88
   0   9   1 2414.36  305.77
   0   9   1 1770.52  219.08
  -1  -9  -1   45.40   34.80
   1   9   1   86.99   71.89
   1   9   1   35.40   32.80
  -2  -9  -1  287.37   65.99
   2   9   1  345.87   80.99
   2   9   1  356.66  114.49
   3   9   1  198.98   91.49
  -4  -9  -1 1406.16  129.69
   4   9   1 1193.18  207.48
  -5  -9  -1 1126.09  122.39
  -5  -9  -1  644.94   97.49
   5   9   1  878.41  169.28
  -6  -9  -1  257.07   59.59
  -6  -9  -1  335.47   69.99
   6   9   1  303.57  116.29
  -7  -9  -1  177.68   65.49
  -7  -9  -1  214.58   61.19
  -7  -9  -1  189.48   54.49
   7   9   1  391.76  138.39
   7   9   1  145.59   53.79
  -8  -9  -1  847.02  124.49
   8   9   1  732.73  126.49
   8   9   1  742.33  181.48
  -9  -9  -1  360.56   86.49
   9   9   1  193.58  115.89
   9   9   1  169.88   65.79
  10   9   1  603.44  126.69
   2 -10  -1  -35.70   36.20
   1 -10  -1  347.97   85.19
  -1  10   1  191.38  109.89
   0 -10  -1  110.59   55.59
   0  10   1  123.89   81.39
  -1 -10  -1  236.58   65.59
   1  10   1  165.68   64.29
   1  10   1  176.48   97.99
   2  10   1  350.26  119.89
   3  10   1 2091.29  305.07
  -4 -10  -1  136.29   46.10
   4  10   1  307.97  118.59
  -5 -10  -1  325.67   68.09
   5  10   1  197.48  104.69
  -6 -10  -1  197.68   55.59
   6  10   1  305.67  124.09
  -7 -10  -1  743.83  131.19
  -7 -10  -1  639.84  110.79
   7  10   1  738.23  175.18
  -8 -10  -1  887.21  134.89
   8  10   1  876.01  196.78
   8  10   1 1201.18  164.08
  -9 -10  -1   65.49   53.09
   9  10   1   38.30   45.50
   9  10   1   54.49   74.19
   1 -11  -1  156.28   72.99
  -1  11   1  361.06  143.59
   0  11   1  140.69  102.09
   1  11   1   12.00   72.89
   2  11   1  276.07  122.79
   3  11   1  447.56  157.08
   4  11   1  154.38  100.99
  -5 -11  -1   55.59   35.70
   5  11   1  133.19   98.59
  -6 -11  -1 1269.27  160.48
   6  11   1 1564.04  274.37
  -7 -11  -1  848.32  134.19
  -7 -11  -1  950.50  158.58
   7  11   1  874.81  207.08
  -8 -11  -1   43.50   49.20
   8  11   1   -2.60   73.29
   8  11   1   36.30   51.59
   2  12   1  591.74  183.98
   3  12   1   48.50   89.49
   4  12   1   23.30   83.69
  -5 -12  -1   72.89   44.30
   5  12   1   32.10   92.49
  -6 -12  -1 1208.38  161.68
   6  12   1  785.52  209.28
  -7 -12  -1  -30.00   42.60
   7  12   1  165.88  116.39
   5  12  -2   93.59   87.89
  -5 -12   2  118.19   53.09
  -5 -12   2  118.99   60.89
   4  12  -2    6.90   80.69
  -4 -12   2   37.00   39.20
   3  12  -2   29.00   88.69
   8  11  -2  131.49   71.19
   7  11  -2   -7.80   39.80
  -7 -11   2    1.30   34.40
  -7 -11   2   98.69   58.19
   6  11  -2  120.09   94.59
  -6 -11   2  165.18   62.29
  -6 -11   2  190.38   73.69
   5  11  -2  -39.10   55.19
  -5 -11   2   -3.10   28.20
  -5 -11   2  -32.90   29.50
   4  11  -2 1472.45  244.08
   3  11  -2 1583.84  271.57
   3  11  -2 1784.22  268.47
   2  11  -2   37.70   71.29
   2  11  -2  104.69   88.69
   1  11  -2   46.90   85.29
   1  11  -2  149.59   98.49
   0  11  -2  -71.99   80.19
   9  10  -2 1478.25  206.08
   8  10  -2  996.50  159.68
  -8 -10   2  598.34  118.29
   7  10  -2   33.70   41.40
   7  10  -2   24.60   70.19
  -7 -10   2  -29.50   26.10
  -7 -10   2    7.80   43.60
   6  10  -2   99.29   60.49
   6  10  -2   47.30   71.09
  -6 -10   2   82.99   48.50
  -6 -10   2    0.80   29.00
   5  10  -2    5.90   54.49
  -5 -10   2  152.68   51.29
  -5 -10   2  114.49   55.69
   4  10  -2   40.00   54.39
   3  10  -2  -13.20   57.69
   3  10  -2   58.99   55.69
   2  10  -2  437.26  124.09
   2  10  -2  393.96  129.69
   1  10  -2  584.14  142.19
   1  10  -2  619.74  160.88
  -1 -10   2  647.04  117.29
   0  10  -2 2759.12  370.06
   0 -10   2 2453.65  240.58
   1 -10   2  130.09   68.09
   2 -10   2  169.58   75.19
   9   9  -2   92.59   56.89
   8   9  -2  534.25  107.89
  -8  -9   2  696.43  123.09
   7   9  -2  373.86  114.89
   7   9  -2  298.07   81.79
  -7  -9   2  204.88   81.99
  -7  -9   2  273.87   73.29
   6   9  -2 1467.25  180.08
   6   9  -2 1376.36  209.98
  -6  -9   2 1030.60  135.69
  -6  -9   2 1162.18  147.29
  -6  -9   2  938.71  154.48
   5   9  -2 2986.70  284.27
  -5  -9   2 2678.33  229.28
  -5  -9   2 2608.44  245.18
   4   9  -2  134.59   64.99
  -4  -9   2  158.48   46.20
   3   9  -2   91.69   67.09
   3   9  -2   13.30   41.50
   2   9  -2   28.90   44.40
   2   9  -2   76.29   72.89
  -2  -9   2    3.00   44.40
   1   9  -2   21.00   45.80
   1   9  -2   50.29   60.99
  -1  -9   2   40.10   40.60
   0   9  -2   60.99   67.39
   0  -9   2   78.99   44.00
   1  -9   2  335.07   87.39
   2  -9   2  -14.30   36.00
   3  -9   2 1602.94  209.18
  10   8  -2  105.39   63.79
   9   8  -2  159.98   73.29
   8   8  -2  -31.70   23.90
   7   8  -2  487.65  125.29
   7   8  -2  351.66   80.79
  -7  -8   2  381.16   93.69
  -7  -8   2  474.55   87.49
   6   8  -2  231.98   82.19
   6   8  -2  224.78   69.89
  -6  -8   2  260.57   62.09
  -6  -8   2  239.98   71.39
  -6  -8   2  148.69   48.20
   5   8  -2  813.72  148.59
  -5  -8   2  630.94  109.69
  -5  -8   2  900.81  116.69
  -5  -8   2  896.71  111.29
   4   8  -2 1706.63  225.88
  -4  -8   2 1768.22  156.98
   3   8  -2   37.90   52.19
   3   8  -2  117.69   57.99
  -3  -8   2   46.10   32.90
   2   8  -2 3768.32  341.67
   2   8  -2 3664.53  351.46
  -2  -8   2 4222.18  316.87
   1   8  -2  572.74  137.29
   1   8  -2  972.30  159.38
  -1  -8   2  618.14  102.59
   0   8  -2    9.80   23.70
   0  -8   2   23.70   34.30
   1  -8   2   74.79   41.80
   2  -8   2  -34.60   24.10
   3  -8   2  347.17   84.49
   4  -8   2   52.39   45.20
   5  -8   2  136.99   66.89
  10   7  -2  883.21  151.28
   9   7  -2 1349.77  186.68
   8   7  -2  141.89   58.39
   7   7  -2 1184.28  147.39
   7   7  -2 1317.87  195.18
  -7  -7   2 1208.48  149.39
  -7  -7   2 1055.19  155.08
   6   7  -2  -10.00   26.30
   6   7  -2    0.10   34.50
  -6  -7   2  -17.00   34.20
  -6  -7   2    3.60   21.60
  -6  -7   2    7.10   21.80
   5   7  -2   90.99   57.59
  -5  -7   2   96.99   35.30
  -5  -7   2  180.68   57.69
  -5  -7   2  202.98   47.10
   4   7  -2  659.43  120.59
  -4  -7   2  500.25   76.99
   3   7  -2  215.38   63.89
   3   7  -2  301.17   83.19
  -3  -7   2  268.67   53.49
  -3  -7   2  464.55   78.39
   2   7  -2  289.17   73.39
   2   7  -2  296.27   91.09
  -2  -7   2  146.39   51.19
   1   7  -2 2568.34  250.17
   1   7  -2 2465.65  238.28
  -1  -7   2 2405.56  207.98
   0   7  -2  510.55   79.29
   0  -7   2  610.24   91.99
  -1   7  -2 2333.57  196.98
   1  -7   2 2289.27  200.28
  -2   7  -2 2095.19  200.28
   2  -7   2 2304.47  199.88
  -3   7  -2  121.39   56.89
  -3   7  -2   14.20   54.99
   3  -7   2   56.29   38.60
  -4   7  -2  132.49  101.59
   4  -7   2   38.70   35.50
   4  -7   2   59.19   79.89
  -5   7  -2   23.40   84.79
   5  -7   2    7.70   38.30
  -6   7  -2  170.08  125.89
  10   6  -2  201.08   77.89
   9   6  -2  224.38   74.99
   8   6  -2    8.90   28.50
   7   6  -2  450.95   84.99
  -7  -6   2  593.64  107.39
   6   6  -2 3471.05  302.87
   6   6  -2 3574.04  266.07
  -6  -6   2 3137.89  258.97
  -6  -6   2 3043.10  273.37
   5   6  -2  781.92   99.29
   5   6  -2  503.85  107.29
  -5  -6   2  531.25   91.79
  -5  -6   2  577.14   81.99
  -5  -6   2  521.65   77.69
   4   6  -2 2219.08  210.78
  -4  -6   2 2422.96  195.38
  -4  -6   2 2198.28  180.58
  -4  -6   2 2127.49  179.48
   3   6  -2  490.05   89.59
   3   6  -2  330.97   72.19
  -3  -6   2  253.77   49.30
  -3  -6   2  469.55   73.79
   2   6  -2  184.88   58.99
   2   6  -2  199.68   58.39
  -2  -6   2  308.87   61.39
   1   6  -2  119.29   51.59
   1   6  -2  138.39   36.60
  -1  -6   2  175.78   47.80
   0   6  -2  263.77   52.19
   0   6  -2  194.48   65.49
   0   6  -2  258.97   44.00
   0  -6   2  268.07   56.49
  -1   6  -2  -15.80   19.30
  -1   6  -2   13.80   17.00
   1  -6   2   19.10   24.10
  -2   6  -2 1001.00  167.98
  -2   6  -2 1081.79  149.49
  -2   6  -2 1257.97  106.79
   2  -6   2 1157.68  139.09
   2  -6   2 1197.88  178.88
  -3   6  -2 1675.33  211.38
  -3   6  -2 1692.83  246.78
   3  -6   2 1589.14  154.18
   3  -6   2 1419.46  207.68
  -4   6  -2  332.37  101.29
  -4   6  -2  254.37  103.89
   4  -6   2  205.48   57.69
   4  -6   2  418.66  113.69
  -5   6  -2 1510.55  258.47
  -5   6  -2 1919.91  274.37
   5  -6   2 1617.34  232.28
   5  -6   2 1972.80  188.58
  -6   6  -2  199.78  115.79
   6  -6   2  417.56   99.19
   6  -6   2  799.92  153.78
  10   5  -2  -49.90   48.00
 -10  -5   2  -67.59   62.09
   9   5  -2  392.76   94.19
   8   5  -2   94.09   45.20
   7   5  -2  801.72  113.59
  -7  -5   2  844.32  113.29
   6   5  -2    3.80   20.70
  -6  -5   2   -4.20   27.90
  -6  -5   2   -4.70   20.20
  -6  -5   2  -14.50   30.50
   5   5  -2  286.47   73.29
   5   5  -2  166.88   44.50
  -5  -5   2  280.97   52.29
  -5  -5   2  188.78   43.80
  -5  -5   2  289.77   68.59
   4   5  -2  297.47   72.89
  -4  -5   2  251.77   54.09
  -4  -5   2  243.08   44.40
  -4  -5   2  160.58   38.20
   3   5  -2 3990.60  288.17
  -3  -5   2 3216.38  259.67
  -3  -5   2 3560.04  258.07
   2   5  -2 3463.15  244.58
   2   5  -2 3246.38  264.77
   2   5  -2 3298.87  269.87
  -2  -5   2 3291.77  254.57
   1   5  -2  887.41  114.79
   1   5  -2  480.75   63.19
  -1  -5   2  674.33   85.99
   0   5  -2 1931.31  145.79
   0   5  -2 1812.02  174.68
   0   5  -2 1749.22  138.69
   0  -5   2 1644.84  146.89
  -1   5  -2   13.50   12.90
  -1   5  -2  -11.90   28.10
  -1   5  -2   25.20   23.20
   1  -5   2    6.70   14.70
  -2   5  -2   51.29   40.90
  -2   5  -2   55.49   39.00
  -2   5  -2   30.10   14.30
   2  -5   2   47.60   26.20
   2  -5   2   23.90   40.10
  -3   5  -2  403.66  101.19
  -3   5  -2  401.26   53.49
  -3   5  -2  558.34  111.89
   3  -5   2  446.96   76.79
   3  -5   2  406.86   91.09
  -4   5  -2    9.10   39.40
  -4   5  -2    3.20   34.40
   4  -5   2   26.60   27.20
   4  -5   2  123.79   59.99
  -5   5  -2   87.59   72.39
  -5   5  -2   78.79   58.89
   5  -5   2   30.10   55.89
   5  -5   2   94.99   41.00
  -6   5  -2 1340.37  243.28
  -6   5  -2 1154.08  205.68
   6  -5   2 1514.65  221.18
  -7   5  -2  115.89   80.29
  -7   5  -2  122.59   87.79
   7  -5   2  146.59   96.79
  10   4  -2   42.90   61.19
 -10  -4   2  147.59   89.99
   9   4  -2   13.00   45.80
  -9  -4   2  104.79   75.69
   8   4  -2 2821.22  246.48
   7   4  -2  768.42  109.19
  -7  -4   2  793.52   73.09
   6   4  -2  435.76   70.69
  -6  -4   2  457.35   80.69
  -6  -4   2  531.85   83.69
   5   4  -2   -4.30   15.80
  -5  -4   2   45.30   31.70
  -5  -4   2   43.20   25.10
  -5  -4   2   23.60   22.10
   4   4  -2 2707.43  232.38
   4   4  -2 2778.22  207.08
  -4  -4   2 2665.63  206.08
  -4  -4   2 2878.91  206.48
  -4  -4   2 2446.56  214.78
   3   4  -2  -23.00   16.00
  -3  -4   2   11.90   12.60
  -3  -4   2   30.60   18.60
  -3  -4   2    5.90   12.00
   2   4  -2    3.80   16.60
   2   4  -2   -2.00   20.00
   2   4  -2   16.00   12.30
  -2  -4   2    7.90   18.50
  -2  -4   2  -14.70    8.30
   1   4  -2   -3.60   17.10
   1   4  -2    2.50   10.50
  -1  -4   2   43.80   22.20
   0   4  -2 2159.38  191.18
   0   4  -2 2220.98  160.68
   0   4  -2 2061.99  162.78
   0  -4   2 2297.37  171.18
  -1   4  -2 5841.42  421.46
  -1   4  -2 6002.70  442.46
  -1   4  -2 6010.20  405.06
   1  -4   2 6325.67  419.76
   1  -4   2 5361.56  443.06
  -2   4  -2   22.00   26.90
  -2   4  -2   43.80   14.30
  -2   4  -2   44.40   32.70
   2  -4   2   79.19   43.00
   2  -4   2   45.10   22.70
  -3   4  -2 1142.99   90.29
  -3   4  -2 1254.67  162.48
  -3   4  -2  944.01  139.09
   3  -4   2  846.62  135.09
   3  -4   2 1275.67  113.19
  -4   4  -2   64.29   51.19
   4  -4   2   37.40   25.40
   4  -4   2   31.20   41.50
  -5   4  -2  -25.30   40.80
   5  -4   2   -1.90   41.90
   5  -4   2   33.00   29.80
  -6   4  -2  200.48   84.19
   6  -4   2  223.58   78.89
  -7   4  -2   46.00   62.69
   7  -4   2   -8.60   49.60
  -8   4  -2   34.40   75.99
   8  -4   2   87.39   78.89
  10   3  -2  177.08   76.99
  10   3  -2  111.89   76.99
   9   3  -2 1572.74  223.68
   9   3  -2 1522.65  205.88
  -9  -3   2 2059.69  291.77
   8   3  -2  491.45  116.19
   8   3  -2  421.86   87.79
  -8  -3   2  592.04  145.69
   7   3  -2  104.09   40.70
   6   3  -2   89.89   34.70
  -6  -3   2  126.49   26.90
  -6  -3   2   47.70   31.40
   5   3  -2 2917.11  219.18
  -5  -3   2 3007.70  232.28
  -5  -3   2 2729.13  224.28
   4   3  -2 6038.10  397.36
  -4  -3   2 5572.74  408.26
  -4  -3   2 5629.34  398.96
  -4  -3   2 5421.56  412.36
   3   3  -2   17.70   24.50
  -3  -3   2   39.90   17.80
  -3  -3   2   15.50   20.80
  -3  -3   2    0.20   11.30
  -3  -3   2   37.10   22.20
   2   3  -2  702.43   88.59
   2   3  -2  800.52   77.19
  -2  -3   2  860.91   79.79
  -2  -3   2  964.60   82.19
  -2  -3   2  804.02   71.89
   1   3  -2  324.77   52.49
   1   3  -2  314.77   52.09
   1   3  -2  357.76   42.10
  -1  -3   2  288.57   50.39
   0   3  -2  760.52   92.09
   0   3  -2  711.33   59.59
   0   3  -2  671.33   59.39
   0  -3   2  706.53   67.89
  -1   3  -2  231.58   30.90
  -1   3  -2  320.27   57.49
  -1   3  -2  362.86   53.99
   1  -3   2  417.06   74.59
   1  -3   2  256.27   42.50
  -2   3  -2   15.90    8.60
  -2   3  -2    1.30   20.80
   2  -3   2   -0.20   11.50
   2  -3   2  -20.60   22.40
  -3   3  -2  684.83  107.19
  -3   3  -2  552.34   46.90
   3  -3   2  474.25   68.79
   3  -3   2  446.46   81.69
  -4   3  -2 3913.51  335.17
   4  -3   2 4159.28  326.47
  -5   3  -2 1409.86  200.38
   5  -3   2 1854.91  204.88
  -6   3  -2  650.13  136.89
   6  -3   2  629.04  125.49
  -7   3  -2  534.75  140.89
   7  -3   2  305.97   94.09
  -8   3  -2  -33.10   53.99
   8  -3   2  156.48   67.39
  10   2  -2  343.37  105.29
   9   2  -2  241.08   84.09
   9   2  -2  125.09   67.79
  -9  -2   2  143.49   96.29
   8   2  -2  692.23  126.69
   8   2  -2  644.24  112.89
  -8  -2   2  662.63  156.18
   7   2  -2   53.49   45.10
   7   2  -2   62.59   34.10
  -7  -2   2   10.50   36.50
   6   2  -2 2331.27  192.28
   5   2  -2 1677.23  137.09
  -5  -2   2 1382.36  141.29
  -5  -2   2 1746.33  124.59
   4   2  -2  668.53   72.39
  -4  -2   2  575.54   75.49
  -4  -2   2  773.62   88.79
   3   2  -2 1132.19   92.29
  -3  -2   2 1069.19  107.19
  -3  -2   2 1280.77  105.59
   2   2  -2  964.30   83.19
  -2  -2   2  877.41   71.99
  -2  -2   2  694.73   69.39
  -2  -2   2  848.42   85.69
  -2  -2   2  938.81   82.69
   1   2  -2 6793.72  449.16
   1   2  -2 6906.31  463.85
   1   2  -2 6498.75  453.65
   1   2  -2 6733.53  451.45
  -1  -2   2 6567.54  455.05
  -1  -2   2 6254.87  458.55
  -1  -2   2 7043.60  467.55
   0   2  -2 2527.75  181.48
   0   2  -2 2175.58  163.18
   0   2  -2 2355.66  159.78
   0   2  -2 2341.97  163.98
   0   2  -2 2235.38  169.78
   0   2  -2 2477.45  174.88
   0  -2   2 2443.26  174.58
  -1   2  -2  891.11   64.99
  -1   2  -2  904.91   66.29
  -1   2  -2  805.22   79.69
  -1   2  -2  896.81   76.29
   1  -2   2  863.31  100.99
   1  -2   2  805.82   73.79
  -2   2  -2    0.90    5.40
  -2   2  -2    3.70   15.80
  -2   2  -2   -1.50    4.40
   2  -2   2    4.00    9.90
   2  -2   2   -7.60   15.10
  -3   2  -2  419.66   34.50
  -3   2  -2  351.96   72.19
  -3   2  -2  332.17   60.69
   3  -2   2  433.96   71.79
  -4   2  -2  -56.49   17.40
   4  -2   2   18.70   26.70
  -5   2  -2   25.50   40.30
   5  -2   2   49.10   41.10
  -6   2  -2   17.30   43.00
   6  -2   2   22.20   38.70
  -7   2  -2 1085.29  180.58
   7  -2   2 1272.77  181.38
  -8   2  -2  960.10  187.88
   8  -2   2 1471.65  205.28
  -9   2  -2   42.10   71.29
   9  -2   2   57.19   74.79
  10   1  -2  351.76  113.39
   9   1  -2  249.48   87.19
   9   1  -2  219.78   87.09
   8   1  -2  724.03  129.79
   8   1  -2  547.35  109.19
  -8  -1   2  489.65  139.79
   7   1  -2   13.30   31.10
   7   1  -2   51.19   43.30
  -7  -1   2  221.78   77.29
   6   1  -2 1797.82  163.78
   6   1  -2 2200.38  185.48
  -6  -1   2 1523.45  219.08
   5   1  -2  138.59   36.00
  -5  -1   2   92.49   49.50
  -5  -1   2  129.29   39.00
   4   1  -2 1049.89   87.79
  -4  -1   2  928.81   94.49
   3   1  -2 2071.59  143.79
  -3  -1   2 1913.71  154.38
  -3  -1   2 1881.31  144.29
   2   1  -2 4842.02  326.17
   2   1  -2 4758.32  347.47
   2   1  -2 4921.51  340.57
  -2  -1   2 5111.69  339.47
  -2  -1   2 4548.75  340.47
   1   1  -2  703.73   66.89
   1   1  -2  694.83   56.29
   1   1  -2  595.84   53.89
   1   1  -2  749.33   54.59
  -1  -1   2  697.23   66.79
  -1  -1   2  747.43   60.29
  -1  -1   2  711.73   61.49
  -1  -1   2  777.42   71.99
   0   1  -2 1110.89   78.09
   0   1  -2 1141.49   83.29
   0   1  -2 1202.38   87.69
   0   1  -2 1280.77   91.09
   0   1  -2 1152.98   82.89
   0   1  -2 1060.99   86.39
   0  -1   2  963.90   89.39
  -1   1  -2  522.25   46.40
  -1   1  -2  511.85   48.70
  -1   1  -2  575.24   41.40
  -1   1  -2  454.05   49.00
  -1   1  -2  538.15   40.00
  -1   1  -2  508.05   67.49
   1  -1   2  556.94   62.39
   1  -1   2  601.94   69.39
  -2   1  -2 5788.72  396.46
  -2   1  -2 5810.62  374.36
  -2   1  -2 5560.54  376.36
  -2   1  -2 5772.72  403.06
  -2   1  -2 5851.71  389.06
   2  -1   2 5470.15  399.76
  -3   1  -2 4879.81  337.27
  -3   1  -2 4621.94  334.47
  -3   1  -2 4440.46  344.57
   3  -1   2 4576.94  337.77
  -4   1  -2   62.69   16.60
  -4   1  -2   41.70   24.40
  -4   1  -2   58.69   36.00
  -4   1  -2   37.40   21.30
   4  -1   2   48.40   31.50
  -5   1  -2   14.30   13.60
  -5   1  -2   58.99   38.10
   5  -1   2   43.10   34.20
  -6   1  -2  334.07   86.89
  -6   1  -2  464.95   56.09
   6  -1   2  382.56   85.69
  -7   1  -2   -6.00   32.90
   7  -1   2   50.89   42.00
  -8   1  -2   51.09   59.39
   8  -1   2  -11.40   43.20
  -9   1  -2   72.29   74.69
   9  -1   2   11.10   54.09
  10   0  -2  640.34  146.79
   9   0  -2  430.86  120.89
   8   0  -2  407.36   99.49
   8   0  -2  467.45  104.39
   7   0  -2 1307.57  169.28
   7   0  -2 1140.09  159.48
  -7   0   2 1168.98  195.88
   6   0  -2  960.00  130.29
   6   0  -2  745.63  111.89
  -6   0   2  918.41  158.48
   5   0  -2 1841.62  176.58
   5   0  -2 2289.97  178.08
  -5   0   2 2098.89  205.98
   4   0  -2  102.79   28.90
  -4   0   2   55.49   26.00
  -4   0   2  126.49   47.90
   3   0  -2 2760.92  195.78
  -3   0   2 2842.72  225.48
  -3   0   2 2597.84  204.78
   2   0  -2  288.47   54.39
   2   0  -2  346.97   33.10
   2   0  -2  418.46   59.19
  -2   0   2  424.56   50.39
  -2   0   2  427.76   67.69
   1   0  -2  888.81   70.79
   1   0  -2  876.81   74.09
   1   0  -2  905.21   63.89
  -1   0   2  999.00   72.89
  -1   0   2  980.60   86.99
  -1   0   2  976.30   77.09
   0   0  -2    3.90    5.40
   0   0  -2   -2.70    2.70
   0   0  -2    4.90    4.10
   0   0  -2   -2.80    2.50
   0   0  -2    2.50    3.90
   0   0  -2    0.80    6.30
   0   0  -2   -4.90    7.90
  -1   0  -2 3611.94  260.07
  -1   0  -2 4402.36  273.47
  -1   0  -2 4288.77  267.27
  -1   0  -2 4159.18  260.47
  -1   0  -2 3362.56  268.57
  -1   0  -2 3574.14  257.97
  -1   0  -2 4053.49  271.07
  -2   0  -2  544.15   55.49
  -2   0  -2  508.05   68.49
  -2   0  -2  484.05   42.10
  -2   0  -2  449.95   42.50
   2   0   2  452.45   55.79
   2   0   2  421.46   60.29
  -3   0  -2 1594.94  122.09
  -3   0  -2 1579.94  128.09
  -3   0  -2 1491.75  139.89
  -3   0  -2 1581.54  129.09
   3   0   2 1584.34  131.69
   3   0   2 1654.43  132.99
  -4   0  -2  359.46   72.89
  -4   0  -2  481.75   66.39
  -4   0  -2  393.56   63.99
   4   0   2  372.26   63.89
   4   0   2  572.94   77.99
  -5   0  -2 1452.15  133.19
  -5   0  -2 1345.57  131.89
  -5   0  -2 1544.35  164.18
  -5   0  -2 1202.58  164.28
   5   0   2 1806.82  150.08
   5   0   2 1426.36  159.48
  -6   0  -2 4590.74  359.16
  -6   0  -2 3785.12  313.67
   6   0   2 3864.61  327.37
   6   0   2 4325.27  329.37
  -7   0  -2   78.19   41.20
  -7   0  -2   61.89   55.59
   7   0   2  101.89   53.49
   7   0   2  138.19   57.89
  -8   0  -2  109.99   65.59
   8   0   2   49.20   45.30
   8   0   2   16.10   40.80
   9   0   2   -7.60   48.00
  10   0   2   16.80   67.99
   9  -1  -2   83.59   63.69
   8  -1  -2  233.38   79.89
   7  -1  -2  443.06   96.09
   7  -1  -2  450.75   78.09
  -7   1   2  577.44  114.59
   6  -1  -2 2348.57  181.58
   6  -1  -2 2060.39  194.18
  -6   1   2 1757.52  195.68
   5  -1  -2  167.18   50.19
   5  -1  -2  115.39   32.20
   5  -1  -2   18.30   32.30
  -5   1   2  122.19   54.39
   4  -1  -2 1189.08  103.29
   4  -1  -2  916.61  121.59
   4  -1  -2 1375.16  118.39
  -4   1   2 1116.69  113.79
  -4   1   2 1318.37  158.38
   3  -1  -2 1023.40  103.39
   3  -1  -2 1223.28  105.59
   3  -1  -2 1283.37   98.79
  -3   1   2 1074.09  140.59
  -3   1   2 1230.48  108.59
   2  -1  -2 1568.44  137.19
   2  -1  -2 1636.24  120.99
  -2   1   2 1732.03  131.29
  -2   1   2 1527.05  141.79
   1  -1  -2 5176.28  360.26
   1  -1  -2 5301.77  346.87
   1  -1  -2 5408.66  358.46
   1  -1  -2 5040.80  353.56
   1  -1  -2 5334.47  355.36
  -1   1   2 5169.68  351.96
  -1   1   2 4714.93  362.56
   0  -1  -2 1175.08   83.29
   0  -1  -2 1288.27   81.69
   0  -1  -2  929.61   76.59
  -1  -1  -2 3063.89  228.38
  -1  -1  -2 3243.58  219.68
  -1  -1  -2 3566.84  219.28
  -1  -1  -2 3096.79  233.18
  -1  -1  -2 3197.08  221.58
  -1  -1  -2 3231.78  221.18
  -2  -1  -2  208.18   18.80
  -2  -1  -2  196.98   24.10
  -2  -1  -2  193.28   22.00
  -2  -1  -2  156.28   28.90
  -2  -1  -2  265.47   38.90
  -2  -1  -2  200.78   16.90
  -2  -1  -2  239.68   27.40
  -2  -1  -2  168.98   40.50
   2   1   2  196.28   55.89
  -3  -1  -2  739.83   67.79
  -3  -1  -2  809.82   89.79
  -3  -1  -2  805.82   56.79
  -3  -1  -2  889.61   71.69
  -3  -1  -2  759.12   59.49
   3   1   2  848.12   72.79
  -4  -1  -2 1960.50  156.68
  -4  -1  -2 1936.51  146.29
   4   1   2 1589.54  143.59
  -5  -1  -2  604.44   89.09
  -5  -1  -2  476.85   71.19
   5   1   2  604.84   81.69
   5   1   2  478.25   87.59
  -6  -1  -2  195.58   55.29
   6   1   2  295.67   65.59
   6   1   2  218.38   55.09
  -7  -1  -2  800.82  133.19
  -7  -1  -2  818.52  133.69
   7   1   2  822.72  120.59
   7   1   2  763.92  124.39
   8   1   2  -31.20   33.70
   8   1   2   25.20   48.20
   9   1   2 2138.79  265.87
   9   1   2 2049.70  252.77
  10   1   2  940.11  180.08
   9  -2  -2  183.48   94.99
   8  -2  -2  260.57   89.09
   7  -2  -2  590.14  117.79
   6  -2  -2  398.36   70.69
   6  -2  -2  361.96   82.99
  -6   2   2  349.47   72.89
   5  -2  -2  129.29   36.10
   5  -2  -2  147.29   52.39
  -5   2   2  185.98   52.69
   4  -2  -2    9.40   14.60
   4  -2  -2   10.40   20.20
  -4   2   2   28.50   24.30
   3  -2  -2 3490.75  255.27
   3  -2  -2 3843.92  266.97
  -3   2   2 3400.56  266.97
   2  -2  -2 1288.27  101.59
   2  -2  -2 1395.56  114.29
   2  -2  -2 1296.27  106.49
  -2   2   2 1270.57  111.59
   1  -2  -2 1580.94  131.79
   1  -2  -2 1770.92  121.59
   1  -2  -2 1809.92  135.69
   1  -2  -2 1591.04  128.59
   1  -2  -2 1669.63  119.59
  -1   2   2 1649.73  129.29
  -1   2   2 1451.55  145.69
  -1   2   2 1674.53  144.89
   0  -2  -2 1829.32  121.09
   0  -2  -2 1769.52  132.99
   0  -2  -2 1865.21  129.49
   0  -2  -2 1753.62  132.79
   0  -2  -2 1607.14  127.89
   0  -2  -2 1748.33  119.19
   0   2   2 1729.83  131.59
   0   2   2 1770.72  125.49
   0   2   2 1810.82  149.99
   0   2   2 1812.02  124.49
  -1  -2  -2 1259.37   86.49
  -1  -2  -2 1120.49   91.99
  -1  -2  -2 1184.08   84.69
  -1  -2  -2 1169.48   91.99
  -1  -2  -2 1232.88   82.89
  -1  -2  -2 1056.79   88.79
   1   2   2 1113.19   99.29
  -2  -2  -2 4831.42  336.07
  -2  -2  -2 4672.83  328.47
  -2  -2  -2 4943.91  346.07
  -2  -2  -2 5139.49  332.77
  -2  -2  -2 4771.22  344.77
  -2  -2  -2 5238.88  330.77
   2   2   2 5154.28  366.56
  -3  -2  -2  238.68   46.60
  -3  -2  -2  137.89   18.80
  -3  -2  -2  135.89   21.60
  -3  -2  -2  192.38   33.50
  -3  -2  -2  118.09   20.50
  -3  -2  -2  138.49   20.50
   3   2   2  130.79   25.80
   3   2   2  218.98   62.09
  -4  -2  -2 2892.11  226.68
  -4  -2  -2 2744.23  193.18
  -4  -2  -2 2824.02  189.78
  -4  -2  -2 2565.54  197.98
   4   2   2 2740.13  203.88
  -5  -2  -2   51.09   31.00
  -5  -2  -2   51.39   22.90
   5   2   2   51.79   24.20
  -6  -2  -2  285.57   56.19
  -6  -2  -2  249.68   63.79
   6   2   2  208.18   49.30
  -7  -2  -2  469.55   95.39
   7   2   2  414.86   78.99
  -8  -2  -2  714.53  129.79
   8   2   2  502.95  104.19
   8   2   2  491.15   99.29
   9   2   2  195.68   79.09
   9   2   2   82.09   58.59
  10   2   2  459.25  125.59
  10   2   2  340.37  111.99
   8  -3  -2 1791.12  240.88
   7  -3  -2  161.28   73.29
  -7   3   2   49.20   75.19
   6  -3  -2  349.47   85.09
  -6   3   2  239.68   90.29
   5  -3  -2    3.50   32.10
  -5   3   2   27.10   42.00
  -5   3   2  113.19   34.70
   4  -3  -2 1306.67  123.69
   4  -3  -2 1485.25  141.09
  -4   3   2 1572.04  126.59
  -4   3   2 1377.76  179.38
   3  -3  -2 1561.14  129.79
   3  -3  -2 1658.53  141.29
   3  -3  -2 1617.64  145.99
  -3   3   2 1586.44  131.29
  -3   3   2 1527.65  158.78
   2  -3  -2  147.19   27.40
   2  -3  -2  106.19   32.40
   2  -3  -2  166.38   36.50
  -2   3   2  131.09   43.70
  -2   3   2  158.58   34.60
  -2   3   2   60.09   40.60
   1  -3  -2 1356.86  104.69
   1  -3  -2 1284.57  110.69
   1  -3  -2 1360.06   99.99
  -1   3   2 1254.97  105.79
  -1   3   2 1247.08  127.09
  -1   3   2 1351.36  134.99
  -1   3   2 1308.87  100.89
   0  -3  -2 3005.10  215.98
   0  -3  -2 2922.41  223.38
   0   3   2 3043.80  240.98
   0   3   2 3102.29  210.88
  -1  -3  -2  989.00   78.69
  -1  -3  -2 1254.77   92.89
  -1  -3  -2 1055.39   92.49
   1   3   2 1002.40   99.09
   1   3   2 1013.00   80.49
   1   3   2 1180.28  100.39
  -2  -3  -2  271.17   21.90
  -2  -3  -2  244.58   31.00
  -2  -3  -2  244.48   41.80
  -2  -3  -2  302.67   51.89
  -2  -3  -2  265.57   30.60
   2   3   2  202.98   48.70
   2   3   2  298.17   53.29
  -3  -3  -2 1112.89   78.89
  -3  -3  -2 1092.29   82.29
  -3  -3  -2 1119.29   84.79
  -3  -3  -2 1107.89   87.19
  -3  -3  -2 1235.28  109.19
  -3  -3  -2 1163.68  125.09
   3   3   2 1039.90  139.99
  -4  -3  -2 1614.54  160.58
  -4  -3  -2 1135.19   89.09
  -4  -3  -2 1154.18   93.09
  -4  -3  -2 1259.77   92.29
   4   3   2  981.00  154.38
   4   3   2 1017.10   96.59
  -5  -3  -2 3083.79  225.78
  -5  -3  -2 3075.09  219.38
  -5  -3  -2 3152.28  224.18
   5   3   2 2983.30  231.68
  -6  -3  -2  358.26   54.89
  -6  -3  -2  405.16   61.99
  -6  -3  -2  357.46   85.29
   6   3   2  352.56   66.49
  -7  -3  -2 1151.58  116.49
  -7  -3  -2 1538.15  185.98
   7   3   2  914.71  126.89
  -8  -3  -2  534.65  121.59
   8   3   2  719.53  112.99
  -9  -3  -2  149.29   70.99
   9   3   2   80.79   53.69
  10   3   2   -3.20   56.59
  11   3   2  197.88   91.49
  11   3   2  282.77  111.69
   8  -4  -2   39.70   66.69
  -8   4   2   65.59   82.39
  -8   4   2   74.09   66.79
   7  -4  -2  428.16  114.89
  -7   4   2  382.86  134.29
  -7   4   2  308.47  121.99
   6  -4  -2   -3.30   47.10
  -6   4   2   47.40   54.49
  -6   4   2   66.89   57.49
   5  -4  -2 3331.47  269.67
  -5   4   2 3045.50  299.57
  -5   4   2 2614.04  280.07
   4  -4  -2 1937.61  186.68
  -4   4   2 2438.86  276.97
  -4   4   2 2075.29  246.78
   3  -4  -2   81.29   36.40
  -3   4   2   94.89   51.59
  -3   4   2  117.49   57.29
   2  -4  -2   73.39   30.60
   2  -4  -2  192.58   44.30
  -2   4   2  151.88   56.69
  -2   4   2  213.28   70.79
   1  -4  -2  329.27   57.19
   1  -4  -2  454.15   64.89
  -1   4   2  509.95   54.19
  -1   4   2  407.46   85.59
  -1   4   2  490.55   97.59
   0   4   2 4372.66  340.37
   0   4   2 4452.25  306.07
   1   4   2  108.89   37.20
   1   4   2   46.00   15.50
   1   4   2   32.10   22.70
  -2  -4  -2 1941.41  158.68
  -2  -4  -2 1868.41  131.69
  -2  -4  -2 2012.40  141.99
  -2  -4  -2 1967.90  143.49
   2   4   2 1865.91  167.78
   2   4   2 2017.70  165.98
  -3  -4  -2   19.20   11.30
  -3  -4  -2   73.69   30.30
  -3  -4  -2   46.50   12.10
  -3  -4  -2   50.69   15.90
   3   4   2  108.59   40.70
  -4  -4  -2 2437.96  169.68
  -4  -4  -2 2530.35  174.38
  -4  -4  -2 2139.49  163.08
   4   4   2 2114.29  218.18
   4   4   2 2421.06  186.78
  -5  -4  -2    1.50   11.20
  -5  -4  -2    5.20   13.40
  -5  -4  -2    8.00   27.50
  -5  -4  -2   13.00   11.70
  -5  -4  -2   24.70   15.10
   5   4   2    3.40   15.00
   5   4   2   79.39   57.19
  -6  -4  -2  536.75   70.29
  -6  -4  -2  759.52   83.89
  -6  -4  -2  707.73   82.09
  -6  -4  -2  568.44  116.49
   6   4   2  563.64   81.89
  -7  -4  -2  388.26   67.29
  -7  -4  -2  402.96  106.09
   7   4   2  513.85   85.09
  -8  -4  -2 1419.26  195.88
   8   4   2 1154.28  149.09
  -9  -4  -2 1254.87  204.38
   9   4   2 1618.54  196.68
 -10  -4  -2  229.98   89.09
  10   4   2  374.16   97.59
  11   4   2  933.71  181.08
  -7   5   2   85.89   75.19
  -7   5   2   40.30   74.89
   6  -5  -2   -2.30   45.90
  -6   5   2   37.80   57.79
  -6   5   2  -29.30   44.00
   5  -5  -2  120.99   55.89
  -5   5   2  113.29   76.19
  -5   5   2  114.59   76.39
   4  -5  -2   48.90   43.30
  -4   5   2   25.40   47.30
  -4   5   2   69.19   58.89
   3  -5  -2  341.47   76.09
  -3   5   2  346.57   99.19
  -3   5   2  463.85  110.99
   2  -5  -2 1876.71  167.18
  -2   5   2 1825.12  233.68
  -2   5   2 1626.64  213.38
   1  -5  -2 5387.86  395.36
  -1   5   2 5064.59  424.96
  -1   5   2 5622.84  378.36
   0   5   2  246.58   37.50
   0   5   2  158.18   56.29
   1   5   2  233.68   57.69
   1   5   2  153.28   28.60
   1   5   2  241.28   59.39
  -2  -5  -2  210.18   33.40
  -2  -5  -2  284.97   32.20
   2   5   2  194.28   52.79
   2   5   2  154.98   50.89
   2   5   2  215.78   36.60
  -3  -5  -2 1895.31  142.29
  -3  -5  -2 1971.60  167.68
  -3  -5  -2 1679.43  137.69
   3   5   2 1859.61  176.38
  -4  -5  -2 2410.26  205.28
  -4  -5  -2 2228.18  169.78
  -4  -5  -2 2152.18  164.38
  -4  -5  -2 2400.76  174.98
   4   5   2 2442.86  228.78
  -5  -5  -2  439.26   57.59
  -5  -5  -2  600.64  105.69
  -5  -5  -2  323.67   52.29
   5   5   2  620.04  131.09
   5   5   2  345.57   57.69
  -6  -5  -2  194.98   38.80
  -6  -5  -2  155.98   34.70
  -6  -5  -2   99.39   31.40
  -6  -5  -2  157.78   36.30
  -6  -5  -2  179.68   69.39
   6   5   2   79.99   32.10
   6   5   2  213.18   84.49
  -7  -5  -2  678.83  142.49
  -7  -5  -2  696.43   89.79
  -7  -5  -2  771.32   90.59
   7   5   2  515.45   87.09
  -8  -5  -2  444.96  122.79
   8   5   2  580.74   94.69
  -9  -5  -2  308.87  107.89
   9   5   2  385.06   91.59
 -10  -5  -2  140.79   78.39
  10   5   2   98.99   57.89
 -11  -5  -2  364.06  154.58
  11   5   2  408.76  108.29
   6  -6  -2 1124.29  163.48
  -6   6   2 1397.86  272.17
  -6   6   2 1535.25  268.67
   5  -6  -2   27.60   32.60
  -5   6   2  -43.60   45.60
  -5   6   2  279.07  104.09
   4  -6  -2   -9.40   45.50
  -4   6   2   73.49   68.79
  -4   6   2    3.00   58.69
   3  -6  -2   61.29   48.30
  -3   6   2   40.00   59.19
  -3   6   2   31.30   47.30
   2  -6  -2  646.64  109.99
  -2   6   2  416.86  114.29
  -1   6   2   -1.00   11.50
  -1   6   2  -30.00   28.00
   0   6   2  897.41  132.29
   0   6   2  597.54   74.09
  -1  -6  -2  546.55   61.99
   1   6   2  520.35   91.99
   1   6   2  425.96   58.99
   1   6   2  478.05   96.59
  -2  -6  -2 4935.41  337.97
   2   6   2 4621.04  371.36
   2   6   2 5216.98  391.96
  -3  -6  -2  758.22   92.49
  -3  -6  -2  723.13   80.29
   3   6   2 1006.00  140.89
  -4  -6  -2   48.60   20.90
  -4  -6  -2   31.30   17.20
  -4  -6  -2   16.10   30.40
   4   6   2   27.90   37.80
  -5  -6  -2   50.29   24.30
  -5  -6  -2  153.88   35.00
  -5  -6  -2   76.39   41.90
   5   6   2  153.68   69.09
  -6  -6  -2 1828.02  146.19
  -6  -6  -2 1388.86  134.69
  -6  -6  -2 1872.81  228.88
  -6  -6  -2 1592.84  142.09
   6   6   2 1958.80  253.27
   6   6   2 1598.44  147.19
  -7  -6  -2 2260.47  185.58
  -7  -6  -2 2124.29  188.38
  -7  -6  -2 2501.95  299.17
   7   6   2 2309.57  196.18
   7   6   2 2171.18  299.57
  -8  -6  -2   43.00   52.89
  -8  -6  -2   14.30   22.10
  -8  -6  -2   -1.10   25.40
   8   6   2   25.00   31.40
  -9  -6  -2  304.07  106.49
   9   6   2  318.47   79.79
 -10  -6  -2  375.66  125.29
  10   6   2  263.37   86.69
 -11  -6  -2  224.98  106.09
  11   6   2  203.18   84.09
  -6   7   2  527.15  167.08
   5  -7  -2  556.44  113.49
  -5   7   2  704.43  184.48
  -5   7   2  598.94  161.18
   4  -7  -2  340.77   82.29
  -4   7   2  427.46  134.49
  -4   7   2  272.17  111.19
   3  -7  -2 2407.36  213.88
  -3   7   2 2438.76  330.47
   2  -7  -2  189.18   49.60
  -2   7   2  220.28   90.09
   1  -7  -2   28.20   24.30
  -1   7   2   31.20   44.40
   0  -7  -2  230.48   47.50
   0   7   2  135.29   59.89
  -1  -7  -2  357.66   55.89
   1   7   2  268.87   79.89
   1   7   2  372.26   85.19
  -2  -7  -2  475.95   61.59
   2   7   2  464.85   92.99
   2   7   2  364.96   90.49
  -3  -7  -2  481.05   58.29
  -3  -7  -2  442.26   63.09
   3   7   2  393.26   97.39
  -4  -7  -2  357.66   55.39
  -4  -7  -2  328.37   53.39
   4   7   2  319.57   90.99
  -5  -7  -2 2753.12  206.68
  -5  -7  -2 2701.53  210.08
   5   7   2 2215.58  293.67
  -6  -7  -2 2209.68  177.88
  -6  -7  -2 2254.37  181.68
   6   7   2 2180.38  295.17
   6   7   2 1928.81  184.88
  -7  -7  -2   28.70   26.80
  -7  -7  -2  -14.40   24.40
  -7  -7  -2   62.79   49.50
  -7  -7  -2   53.09   29.30
   7   7   2   24.50   61.99
   7   7   2   10.20   21.40
  -8  -7  -2   -8.70   43.80
  -8  -7  -2   -3.60   24.50
  -8  -7  -2   19.50   28.40
   8   7   2  -22.80   50.39
   8   7   2  -32.60   18.90
  -9  -7  -2  291.67  109.29
   9   7   2  181.98   60.89
 -10  -7  -2 2040.90  304.57
  10   7   2 1787.72  227.08
   5  -8  -2   77.69   53.69
   4  -8  -2  -13.50   31.70
  -4   8   2   73.99   86.69
   3  -8  -2  116.19   50.79
  -3   8   2  139.59   87.59
   2  -8  -2 1574.14  154.68
  -2   8   2 1322.77  215.88
   1  -8  -2   66.39   35.40
  -1   8   2  -13.90   38.00
   0  -8  -2 2054.29  169.98
   0   8   2 1713.23  242.88
   0   8   2 1915.71  231.38
  -1  -8  -2 1823.82  153.78
   1   8   2 1809.02  241.98
   1   8   2 1781.52  181.38
  -2  -8  -2  193.68   43.50
   2   8   2  145.69   54.59
   2   8   2   22.70   45.50
  -3  -8  -2  235.48   45.00
   3   8   2  161.18   73.09
  -4  -8  -2    5.60   17.60
   4   8   2   16.70   44.30
  -5  -8  -2  642.84   85.49
  -5  -8  -2  712.83   89.99
   5   8   2  748.63  152.28
  -6  -8  -2   -2.00   17.60
  -6  -8  -2   27.80   24.90
   6   8   2   -4.00   58.49
  -7  -8  -2  553.04   88.39
  -7  -8  -2  359.16   73.09
  -7  -8  -2  560.44   93.69
   7   8   2  517.35   92.79
   7   8   2  519.85  147.79
  -8  -8  -2  409.36   85.39
  -8  -8  -2  407.36   85.79
   8   8   2  692.83  168.98
   8   8   2  631.94  108.59
  -9  -8  -2 1534.75  187.28
  -9  -8  -2 1255.47  169.08
   9   8   2 1671.13  192.48
  10   8   2   78.09   65.79
   3  -9  -2   13.40   34.90
   2  -9  -2  426.76   90.19
  -2   9   2  212.98  100.09
   1  -9  -2   -8.00   23.80
  -1   9   2   34.00   52.79
   0  -9  -2    6.00   28.60
   0   9   2   11.70   41.40
   0   9   2   25.40   41.80
  -1  -9  -2 1213.58  136.19
   1   9   2 1026.50  191.08
   1   9   2  962.70  154.48
   2   9   2 1160.38  201.78
   2   9   2  980.00  152.58
   3   9   2 1128.39  193.38
  -4  -9  -2 1829.12  159.98
   4   9   2 1936.01  270.37
  -5  -9  -2  203.88   48.50
  -5  -9  -2  174.08   47.00
   5   9   2  165.08   80.69
  -6  -9  -2  246.98   55.39
  -6  -9  -2  225.98   58.59
   6   9   2  162.08   98.89
  -7  -9  -2  129.79   44.20
  -7  -9  -2   78.99   39.00
  -7  -9  -2  236.18   65.09
   7   9   2  103.99   86.29
  -8  -9  -2  729.23  110.19
   8   9   2  525.55  102.69
   8   9   2  741.83  186.68
  -9  -9  -2  133.09   55.39
   9   9   2   76.29   50.19
   9   9   2  158.08  102.39
  10   9   2  416.46  104.99
   2 -10  -2  400.56  100.99
   1 -10  -2  294.27   74.79
  -1  10   2  400.76  148.79
   0 -10  -2  -18.50   30.40
   0  10   2   -5.90   52.09
   0  10   2   33.40   48.70
   1  10   2  151.58   68.59
   1  10   2  120.99   81.89
   2  10   2   47.90   45.10
   2  10   2   65.99   71.59
   3  10   2  180.58   96.69
  -4 -10  -2  196.38   50.29
   4  10   2  252.67  111.79
  -5 -10  -2  981.70  123.29
   5  10   2 1097.99  214.08
  -6 -10  -2   64.29   37.10
   6  10   2    7.40   53.59
  -7 -10  -2 1657.93  188.48
   7  10   2 1871.71  297.77
  -8 -10  -2  530.15   94.79
   8  10   2  500.35  102.69
   8  10   2  438.16  144.99
  -9 -10  -2  293.67   83.09
   9  10   2  258.07   77.99
   9  10   2  204.18  104.39
   1 -11  -2  923.31  143.19
  -1  11   2  634.54  184.08
   0  11   2 1286.87  249.88
   1  11   2   24.60   79.69
   2  11   2  872.51  196.78
   3  11   2   24.80   68.09
  -4 -11  -2  186.68   58.79
   4  11   2   96.79   91.19
  -5 -11  -2  314.57   69.79
   5  11   2  293.77  132.79
  -6 -11  -2   97.89   43.40
   6  11   2   56.39   78.69
  -7 -11  -2   -6.40   24.50
   7  11   2  -38.20   62.29
  -8 -11  -2 1246.78  166.08
   8  11   2 1034.80  225.98
   2  12   2   81.39   94.79
   3  12   2 2390.96  377.26
   4  12   2   85.29   94.39
  -5 -12  -2  604.64  108.39
   5  12   2  447.96  155.78
  -6 -12  -2  373.86   81.39
   6  12   2  253.17  123.39
  -7 -12  -2   37.00   45.70
   7  12   2  -25.10   87.59
   4  12  -3   24.10   76.89
  -4 -12   3  102.99   58.39
   7  11  -3  -14.10   53.69
  -7 -11   3    2.40   34.70
  -7 -11   3    2.70   63.39
   6  11  -3   96.19   63.99
  -6 -11   3  -11.60   44.80
  -6 -11   3  133.09   55.99
   5  11  -3  133.49   79.89
  -5 -11   3  200.38   74.09
  -5 -11   3   86.59   46.30
   4  11  -3   34.20   71.99
  -4 -11   3   27.70   45.20
   3  11  -3  275.37  115.59
   3  11  -3  161.28   94.39
   2  11  -3 1743.23  275.37
   2  11  -3 1521.65  274.37
   1  11  -3  603.74  180.98
   1  11  -3  354.76  139.09
   0  11  -3  644.44  192.68
   8  10  -3  437.96  101.89
  -8 -10   3  139.89   64.59
   7  10  -3 2122.59  249.08
  -7 -10   3 1634.04  233.58
  -7 -10   3 2023.30  225.78
   6  10  -3  313.77  108.99
   6  10  -3  386.26   98.69
  -6 -10   3  398.96  105.19
  -6 -10   3  518.15   98.99
   5  10  -3  486.35  126.59
  -5 -10   3  395.06   82.09
  -5 -10   3  530.85  108.89
   4  10  -3  128.89   78.19
  -4 -10   3   62.99   43.40
   3  10  -3  231.88   90.29
   3  10  -3  169.38   89.19
   2  10  -3  336.17  118.89
   2  10  -3  181.18   86.99
   1  10  -3  102.59   77.69
   1  10  -3   36.50   63.69
  -1 -10   3  116.39   61.99
   0  10  -3  137.69   81.39
   0  10  -3  -15.30   63.89
   0 -10   3  -26.40   33.10
   1 -10   3  945.31  158.18
   2 -10   3 1002.20  171.58
   9   9  -3  160.18   70.49
   8   9  -3  863.01  147.79
   7   9  -3   31.70   38.90
  -7  -9   3   32.90   35.90
  -7  -9   3   69.99   53.09
   6   9  -3  -30.40   27.10
   6   9  -3   58.59   59.79
  -6  -9   3   22.30   30.30
  -6  -9   3    6.40   37.90
   5   9  -3  123.99   68.69
  -5  -9   3   81.79   42.80
  -5  -9   3   97.19   51.59
   4   9  -3 2911.61  277.87
  -4  -9   3 2524.75  225.88
  -4  -9   3 2759.82  248.08
   3   9  -3 1847.72  264.67
   3   9  -3 2522.45  285.67
   2   9  -3  250.07   89.09
   2   9  -3  -14.60   46.80
  -2  -9   3  121.09   50.79
   1   9  -3  446.86  117.79
   1   9  -3  537.75  140.99
  -1  -9   3  333.57   86.79
   0   9  -3   63.29   69.19
   0  -9   3   10.00   40.60
   1  -9   3  -66.39   29.40
   2  -9   3    0.30   40.40
   3  -9   3   45.80   49.80
  10   8  -3  -15.10   48.60
   9   8  -3 1211.08  181.68
   8   8  -3  493.25  105.39
   7   8  -3  255.07   95.39
   7   8  -3  271.47   74.89
  -7  -8   3  393.76   84.99
  -7  -8   3  306.27   88.09
   6   8  -3    9.00   30.00
   6   8  -3  -51.49   44.10
  -6  -8   3   -8.00   22.30
  -6  -8   3    5.60   34.80
  -6  -8   3    3.40   24.50
   5   8  -3  801.92  148.89
  -5  -8   3  853.51  114.59
  -5  -8   3  919.81  139.79
  -5  -8   3  901.71  116.79
   4   8  -3  329.27   93.39
  -4  -8   3  239.28   58.79
  -4  -8   3  322.77   75.89
   3   8  -3  138.09   70.19
   3   8  -3  161.28   66.79
  -3  -8   3  118.09   49.80
   2   8  -3   75.79   58.69
   2   8  -3  109.49   62.29
  -2  -8   3   73.99   45.20
   1   8  -3 1284.77  190.68
   1   8  -3 1267.97  203.38
  -1  -8   3 1223.18  159.68
   0   8  -3 4016.60  353.06
   0  -8   3 3344.97  293.67
   1  -8   3  143.29   52.49
   2  -8   3  522.95  105.39
   3  -8   3   15.70   42.90
   4  -8   3   24.30   43.00
  10   7  -3 1016.60  169.78
   9   7  -3  619.44  122.49
   8   7  -3  194.58   61.59
   7   7  -3  252.57   95.19
   7   7  -3  422.06   86.99
  -7  -7   3  380.06   93.29
   6   7  -3  870.11  145.99
   6   7  -3  929.51  126.99
  -6  -7   3  765.12  111.99
  -6  -7   3  727.83  127.39
   5   7  -3 2427.86  231.28
  -5  -7   3 2411.16  200.38
  -5  -7   3 2238.88  197.58
  -5  -7   3 2406.26  219.48
   4   7  -3   73.19   45.40
  -4  -7   3   21.90   21.90
  -4  -7   3    5.60   24.40
   3   7  -3   19.80   38.30
   3   7  -3  110.09   48.80
  -3  -7   3   84.89   45.10
   2   7  -3  904.11  151.18
   2   7  -3  963.00  151.68
  -2  -7   3 1160.68  144.19
   1   7  -3  652.53  130.59
   1   7  -3  704.13  128.59
  -1  -7   3  857.81  120.39
   0   7  -3   34.20   23.00
   0   7  -3  -44.00   35.00
   0  -7   3   27.80   30.50
  -1   7  -3  124.39   40.10
   1  -7   3  177.38   54.69
   2  -7   3   -0.70   28.00
  -3   7  -3 3360.06  379.86
   3  -7   3 2643.54  246.08
  -4   7  -3 1202.28  221.88
   4  -7   3 1555.64  189.78
   4  -7   3 1221.38  216.28
  -5   7  -3   53.09   85.99
   5  -7   3  237.08   70.99
   5  -7   3  106.19   98.69
  10   6  -3   72.79   62.29
   9   6  -3  783.42  135.19
   8   6  -3   61.69   43.40
   7   6  -3 1181.58  144.59
  -7  -6   3  914.51  147.49
   6   6  -3  709.13  129.09
   6   6  -3  864.61  112.89
  -6  -6   3  876.71  117.09
  -6  -6   3  973.60  138.39
   5   6  -3  612.04  110.09
   5   6  -3  537.55   81.99
  -5  -6   3  412.86   70.89
  -5  -6   3  335.27   79.99
  -5  -6   3  401.66   68.89
   4   6  -3 1232.68  156.78
  -4  -6   3 1281.77  146.29
  -4  -6   3 1090.69  123.09
  -4  -6   3 1071.19  122.29
   3   6  -3  272.07   69.99
   3   6  -3  244.18   63.29
  -3  -6   3  365.36   70.99
  -3  -6   3  370.96   58.49
  -3  -6   3  325.27   67.89
   2   6  -3 3369.66  302.17
   2   6  -3 3874.81  307.47
  -2  -6   3 3798.82  292.47
   1   6  -3  141.69   56.29
  -1  -6   3  251.47   57.29
   0   6  -3  383.06   94.29
   0   6  -3  313.17   51.39
   0  -6   3  304.37   67.29
  -1   6  -3   66.79   30.60
  -1   6  -3   85.19   27.30
   1  -6   3   21.70   24.70
  -2   6  -3  409.16   57.89
  -2   6  -3  396.06   78.39
  -2   6  -3  436.36  108.59
   2  -6   3  373.56   72.59
  -3   6  -3  -25.70   31.40
  -3   6  -3   99.69   68.49
   3  -6   3   -1.90   20.60
   3  -6   3   -8.10   46.80
  -4   6  -3  116.39   63.19
  -4   6  -3  100.29   69.99
   4  -6   3   69.59   38.70
   4  -6   3  185.38   92.59
  -5   6  -3  119.19   86.69
   5  -6   3   13.10   36.50
   5  -6   3  140.39   74.19
  -6   6  -3 1309.37  240.98
   6  -6   3 1000.50  156.18
   6  -6   3 1072.09  196.48
  10   5  -3  531.65  124.09
 -10  -5   3  362.96  135.89
   9   5  -3  952.70  149.19
   8   5  -3   99.59   51.89
   7   5  -3  686.23  104.59
  -7  -5   3  728.73  111.69
   6   5  -3  308.27   62.19
  -6  -5   3  335.17   80.19
  -6  -5   3   96.89   49.10
   5   5  -3 1124.99  121.59
   5   5  -3  947.61  142.19
  -5  -5   3  862.61  129.99
  -5  -5   3 1021.60  117.39
   4   5  -3  734.43  114.59
  -4  -5   3  716.33   89.99
  -4  -5   3  699.03  104.39
  -4  -5   3  985.20  101.49
   3   5  -3 1405.56  137.39
  -3  -5   3 1368.86  130.79
  -3  -5   3 1427.26  121.39
  -3  -5   3 1365.46  129.19
   2   5  -3  794.12  114.79
   2   5  -3  863.61   91.59
   2   5  -3  912.01  117.39
  -2  -5   3  798.62  110.29
   1   5  -3 2230.78  169.98
   1   5  -3 2022.20  196.78
  -1  -5   3 2310.97  187.88
   0   5  -3  451.55   53.99
   0   5  -3  259.87   71.59
   0   5  -3  433.36   53.39
   0  -5   3  274.77   56.09
  -1   5  -3 2692.03  310.17
  -1   5  -3 2701.03  231.68
  -1   5  -3 2399.26  190.18
  -1   5  -3 2585.34  197.98
   1  -5   3 2714.53  210.28
  -2   5  -3 1730.93  137.79
  -2   5  -3 1704.03  210.38
  -2   5  -3 1802.32  160.48
   2  -5   3 1727.13  216.48
   2  -5   3 1832.72  159.08
  -3   5  -3  179.38   33.20
  -3   5  -3  152.58   69.49
  -3   5  -3  152.28   62.69
   3  -5   3   92.29   58.19
   3  -5   3  227.88   55.09
  -4   5  -3   -0.50   38.50
  -4   5  -3  -29.00   38.00
   4  -5   3  -12.30   38.80
   4  -5   3    0.40   27.70
  -5   5  -3  514.05  144.19
  -5   5  -3  448.66  114.79
   5  -5   3  313.67   75.59
   5  -5   3  380.76  106.09
  -6   5  -3  -36.10   63.19
  -6   5  -3   97.89   67.09
   6  -5   3   68.59   67.19
   6  -5   3   -1.00   29.80
  -7   5  -3   55.39   87.99
   7  -5   3  -18.10   61.19
  10   4  -3  837.82  157.58
  10   4  -3 1041.10  193.58
 -10  -4   3  717.13  188.58
   9   4  -3  274.67   80.09
  -9  -4   3  118.19   80.49
   8   4  -3  463.25   92.49
   7   4  -3  746.03  106.29
  -7  -4   3  694.63   87.79
   6   4  -3 1938.91  167.18
  -6  -4   3 1927.21  183.48
  -6  -4   3 1962.20  179.28
   5   4  -3  301.17   54.39
  -5  -4   3  294.47   69.49
  -5  -4   3  314.47   69.69
   4   4  -3  652.73  102.59
  -4  -4   3  806.62   92.39
  -4  -4   3  683.03  102.29
   3   4  -3  144.79   43.30
  -3  -4   3   76.69   25.70
  -3  -4   3   76.29   25.30
  -3  -4   3  121.99   37.70
   2   4  -3 1135.29   97.59
   2   4  -3 1195.58  111.49
   2   4  -3 1005.10  120.19
  -2  -4   3 1052.09  123.49
  -2  -4   3 1133.09   98.49
  -2  -4   3 1192.18  107.89
   1   4  -3   39.80   25.70
   1   4  -3   -3.10    9.80
  -1  -4   3  -16.00   13.40
   0   4  -3 2715.93  199.98
   0   4  -3 2851.71  195.38
   0   4  -3 2745.63  232.98
   0  -4   3 2660.73  214.18
  -1   4  -3  588.14  103.39
  -1   4  -3  609.94   94.99
  -1   4  -3  550.74   59.49
  -1   4  -3  622.84   72.19
   1  -4   3  446.96   71.29
   1  -4   3  657.63  108.89
  -2   4  -3 1002.70  139.59
  -2   4  -3 1216.68  115.79
  -2   4  -3 1092.29   89.29
   2  -4   3 1184.98  155.48
   2  -4   3 1063.49  105.29
  -3   4  -3 1311.37  175.18
  -3   4  -3 1254.77   96.89
  -3   4  -3 1274.87  160.28
   3  -4   3 1057.39  153.78
   3  -4   3 1205.68  119.69
  -4   4  -3  618.34  124.89
   4  -4   3  585.34   91.59
   4  -4   3  521.85  112.99
  -5   4  -3 2917.91  288.87
   5  -4   3 2931.21  245.48
   5  -4   3 2743.33  266.77
  -6   4  -3   89.99   76.39
   6  -4   3  159.18   73.49
  -7   4  -3   30.80   76.09
   7  -4   3   23.30   57.99
  -8   4  -3  157.58  119.79
   8  -4   3   85.09   82.69
  10   3  -3   43.10   66.89
   9   3  -3  249.28   82.89
   9   3  -3  291.47   96.59
  -9  -3   3   77.09   87.29
   8   3  -3  850.71  130.59
  -8  -3   3  998.50  190.98
   7   3  -3 2503.05  214.08
   6   3  -3  -12.00   18.90
  -6  -3   3   37.10   21.10
  -6  -3   3   -0.80   28.40
   5   3  -3 1005.10   98.19
  -5  -3   3 1116.79  132.49
  -5  -3   3 1186.28  135.39
   4   3  -3  581.44   67.89
  -4  -3   3  395.26   80.49
  -4  -3   3  590.54   85.89
   3   3  -3 1877.41  157.78
  -3  -3   3 2165.48  167.58
  -3  -3   3 1792.52  147.09
  -3  -3   3 1660.03  163.98
   2   3  -3 2041.80  158.98
   2   3  -3 2069.39  159.18
  -2  -3   3 1778.32  162.38
  -2  -3   3 2032.00  153.98
  -2  -3   3 2195.58  166.68
   1   3  -3 1027.30   81.99
   1   3  -3  864.21   91.69
  -1  -3   3  868.11  103.49
  -1  -3   3 1018.20   91.19
   0   3  -3 1777.52  158.38
   0   3  -3 1855.81  136.79
   0  -3   3 1837.62  150.28
  -1   3  -3  652.23  102.59
  -1   3  -3  773.32   71.09
  -1   3  -3  819.52   97.69
  -1   3  -3  821.72   66.09
   1  -3   3  801.42  113.49
   1  -3   3  875.41   94.59
  -2   3  -3  214.68   27.00
  -2   3  -3  205.08   53.09
   2  -3   3  192.98   57.19
   2  -3   3  209.88   41.70
  -3   3  -3 1364.86  173.78
  -3   3  -3 1495.35  106.79
   3  -3   3 1429.86  129.49
   3  -3   3 1528.85  174.08
  -4   3  -3  307.77   82.09
   4  -3   3  488.25   94.49
  -5   3  -3  566.64  120.09
   5  -3   3  591.94  111.59
  -6   3  -3 1062.19  183.38
   6  -3   3 1385.86  187.68
  -7   3  -3   44.10   58.79
   7  -3   3   64.69   54.49
  -8   3  -3 1370.46  254.17
   8  -3   3 1244.98  206.88
  10   2  -3  149.59   79.39
   9   2  -3   64.49   61.09
   9   2  -3  -20.50   46.90
  -9  -2   3   29.10   78.09
   8   2  -3  525.25  101.79
   8   2  -3  476.85  114.09
  -8  -2   3  667.53  153.08
   7   2  -3  283.97   65.59
  -7  -2   3  273.57   99.39
   6   2  -3  480.05   77.59
  -6  -2   3  510.85  116.19
   5   2  -3  122.59   33.20
  -5  -2   3  138.99   31.10
  -5  -2   3  128.19   42.90
   4   2  -3 4461.35  306.47
  -4  -2   3 4175.78  319.87
  -4  -2   3 4362.26  324.47
   3   2  -3  479.75   54.89
  -3  -2   3  645.64   89.09
  -3  -2   3  405.56   65.99
   2   2  -3  331.47   50.89
   2   2  -3  386.66   49.99
  -2  -2   3  310.67   60.79
  -2  -2   3  540.65   73.89
   1   2  -3  781.52   64.49
   1   2  -3  783.62   93.29
   1   2  -3  754.62   70.29
   1   2  -3  811.62   68.19
  -1  -2   3  629.14   86.19
  -1  -2   3  750.12   75.39
   0   2  -3 2224.88  172.78
   0   2  -3 2260.47  166.28
   0   2  -3 2018.90  154.68
   0   2  -3 2098.39  165.98
   0   2  -3 2216.38  156.28
   0  -2   3 2333.27  172.48
  -1   2  -3 3895.11  283.57
  -1   2  -3 4208.78  273.37
  -1   2  -3 4062.29  286.77
  -1   2  -3 4019.30  304.37
  -1   2  -3 3909.31  285.47
  -1   2  -3 3978.40  273.97
   1  -2   3 3958.00  286.97
   1  -2   3 4104.19  306.37
  -2   2  -3   20.00   17.40
  -2   2  -3   22.10    9.30
  -2   2  -3   43.20   26.00
  -2   2  -3   15.50    7.10
   2  -2   3    4.10   15.10
   2  -2   3   23.50   25.80
  -3   2  -3 1699.53  112.29
  -3   2  -3 1655.73  115.49
  -3   2  -3 1297.67  141.69
  -3   2  -3 1656.73  143.09
  -3   2  -3 1698.73  154.98
   3  -2   3 1658.23  152.08
  -4   2  -3   92.79   44.80
  -4   2  -3  103.89   38.60
   4  -2   3  112.09   47.90
  -5   2  -3  399.66  103.89
  -5   2  -3  543.05   90.69
   5  -2   3  383.16   84.69
  -6   2  -3  183.28   86.39
   6  -2   3  149.79   64.59
  -7   2  -3  437.26  122.29
   7  -2   3  541.65  120.09
  -8   2  -3  152.38   97.09
   8  -2   3  230.38  102.19
  -9   2  -3  725.83  188.08
   9  -2   3  603.84  149.29
  10   1  -3  387.56  124.29
   9   1  -3 1600.04  226.38
   8   1  -3  299.87   82.99
   8   1  -3  266.27   81.59
  -8  -1   3  364.26  119.69
   7   1  -3   23.20   38.50
   7   1  -3   -7.70   36.40
  -7  -1   3   42.50   54.49
   6   1  -3  132.49   42.70
  -6  -1   3  138.89   65.39
   5   1  -3  714.73   85.89
  -5  -1   3  755.62  106.09
  -5  -1   3  845.72  135.89
   4   1  -3 2467.95  181.18
  -4  -1   3 2516.35  179.78
  -4  -1   3 2298.87  212.28
  -4  -1   3 2343.37  195.58
   3   1  -3   -6.30    7.90
  -3  -1   3   32.80   17.00
  -3  -1   3   23.50   17.20
   2   1  -3  147.89   41.60
   2   1  -3  170.98   33.50
  -2  -1   3  194.88   38.30
  -2  -1   3  142.29   36.60
   1   1  -3 5768.62  384.06
   1   1  -3 5754.92  384.16
   1   1  -3 6024.80  401.26
  -1  -1   3 5623.04  405.76
  -1  -1   3 5871.01  400.26
  -1  -1   3 5754.72  395.56
  -1  -1   3 5339.97  408.86
   0   1  -3 3282.97  236.48
   0   1  -3 3164.68  238.58
   0   1  -3 3428.96  223.18
   0   1  -3 3593.44  236.18
   0   1  -3 3666.23  247.18
   0   1  -3 3247.88  235.88
   0  -1   3 3203.78  245.78
  -1   1  -3  641.84   86.19
  -1   1  -3  883.11   67.09
  -1   1  -3  856.41   61.69
  -1   1  -3  722.23   67.19
  -1   1  -3  806.72   64.99
  -1   1  -3  743.93   61.99
   1  -1   3  747.43   90.79
  -2   1  -3  736.83   89.79
  -2   1  -3  860.51   69.19
  -2   1  -3  780.82   58.69
  -2   1  -3  796.02   56.49
  -2   1  -3  826.32   73.49
   2  -1   3  741.43   91.59
  -3   1  -3 1563.04  125.29
  -3   1  -3 1398.66  117.79
  -3   1  -3 1471.85   99.19
  -3   1  -3 1311.27  133.19
   3  -1   3 1509.05  133.39
  -4   1  -3 3976.20  316.67
  -4   1  -3 3697.83  297.17
  -4   1  -3 4195.98  296.37
   4  -1   3 3832.72  302.77
  -5   1  -3 1105.69  157.58
  -5   1  -3 1163.08  133.99
   5  -1   3 1248.88  154.88
  -6   1  -3 1100.89  143.09
  -6   1  -3 1208.98  188.88
   6  -1   3 1161.08  157.18
  -7   1  -3  404.16  108.29
  -7   1  -3  526.35   99.49
   7  -1   3  261.77   81.99
  -8   1  -3  263.67  102.69
   8  -1   3  497.45  117.19
  -9   1  -3   88.99   76.39
   9  -1   3  -11.00   52.19
   9   0  -3  -48.50   37.90
   8   0  -3  369.66   97.99
   8   0  -3  486.25  110.29
  -8   0   3  414.16  124.99
   7   0  -3   55.89   47.50
   7   0  -3   14.00   46.60
  -7   0   3   73.69   71.59
   6   0  -3 2470.85  226.38
   6   0  -3 2677.23  223.78
  -6   0   3 2648.73  316.07
   5   0  -3 2232.38  183.18
  -5   0   3 2139.69  220.58
   4   0  -3   47.60   21.80
  -4   0   3   20.50   35.60
  -4   0   3   49.20   24.40
   3   0  -3   58.69   17.30
  -3   0   3   34.60   30.00
  -3   0   3   22.30   16.90
   2   0  -3   27.10   13.20
   2   0  -3   61.49   12.00
  -2   0   3   23.80   26.50
  -2   0   3   32.30   12.80
  -2   0   3   48.50   20.00
   1   0  -3 5572.04  362.56
   1   0  -3 5498.55  364.06
   1   0  -3 5462.35  368.56
   1   0  -3 5254.17  365.26
  -1   0   3 5261.47  371.66
  -1   0   3 4892.31  382.36
   0   0  -3  394.06   57.99
   0   0  -3  441.36   66.59
   0   0  -3  410.16   42.10
   0   0  -3  460.85   40.80
   0   0  -3  461.35   40.90
   0   0  -3  600.24   73.19
   0   0  -3  445.86   54.39
   0   0  -3  523.35   47.40
   0   0  -3  550.74   42.50
  -1   0  -3  656.93   76.89
  -1   0  -3  655.03   50.39
  -1   0  -3  554.64   68.79
  -1   0  -3  652.33   63.19
  -1   0  -3  718.13   58.09
  -1   0  -3  720.23   59.89
  -1   0  -3  742.13   80.59
  -1   0  -3  702.73   64.49
  -1   0  -3  694.73   50.19
  -2   0  -3  962.90   64.59
  -2   0  -3  948.81   67.79
  -2   0  -3  879.11   70.89
  -2   0  -3  821.32  117.69
  -2   0  -3  886.21   90.49
  -2   0  -3  893.41   74.59
   2   0   3  868.81  103.99
  -3   0  -3 5006.70  366.16
  -3   0  -3 5020.40  345.97
  -3   0  -3 5029.20  340.07
   3   0   3 4480.85  351.36
   3   0   3 5039.70  356.16
  -4   0  -3  111.49   32.20
  -4   0  -3  136.59   37.50
  -4   0  -3   87.39   38.30
   4   0   3  135.89   40.00
   4   0   3  153.78   44.50
  -5   0  -3  272.07   57.89
  -5   0  -3  296.87   75.49
  -5   0  -3  346.87   57.69
  -5   0  -3  246.68   56.29
   5   0   3  234.48   61.69
   5   0   3  255.87   59.69
  -6   0  -3  239.98   75.99
  -6   0  -3  231.78   59.29
  -6   0  -3  315.87   60.29
   6   0   3  197.88   62.89
   6   0   3  139.79   56.49
  -7   0  -3 1717.43  235.18
  -7   0  -3 1991.30  210.88
   7   0   3 1840.62  211.88
   7   0   3 1603.54  199.78
  -8   0  -3 2156.08  230.98
  -8   0  -3 1834.22  267.47
   8   0   3 1590.94  221.58
  -9   0  -3   55.49   44.60
  -9   0  -3   35.60   54.09
   9   0   3   17.90   55.69
 -10   0  -3  311.17  142.39
  10   0   3  337.97  109.29
   9  -1  -3    8.90   56.99
   8  -1  -3  168.98   55.39
   8  -1  -3   39.90   60.39
   7  -1  -3   26.30   42.50
   7  -1  -3   33.40   29.50
  -7   1   3   24.00   43.60
   6  -1  -3  181.78   59.79
   6  -1  -3  210.68   51.69
  -6   1   3  167.38   68.59
   5  -1  -3  643.94   98.39
   5  -1  -3  558.34   75.79
  -5   1   3  506.05  111.19
   4  -1  -3  557.14   81.09
   4  -1  -3  616.34   73.99
   4  -1  -3  796.22   94.79
  -4   1   3  516.95   82.69
  -4   1   3  759.02  126.79
   3  -1  -3 1960.90  163.58
   3  -1  -3 2199.78  162.38
  -3   1   3 2293.47  174.88
  -3   1   3 2034.90  194.78
   2  -1  -3 5064.29  332.57
   2  -1  -3 4677.03  342.37
  -2   1   3 4619.84  363.76
   1  -1  -3  270.17   40.90
   1  -1  -3  244.28   32.10
   1  -1  -3  196.48   34.80
   1  -1  -3  272.37   32.40
   1  -1  -3  286.87   35.00
   1  -1  -3  291.27   48.30
  -1   1   3  174.48   45.40
   0  -1  -3  239.38   37.00
   0  -1  -3  285.07   26.00
   0  -1  -3  285.67   26.80
   0  -1  -3  269.77   31.50
   0  -1  -3  351.16   30.00
   0  -1  -3  439.56   59.39
   0  -1  -3  282.17   22.40
  -1  -1  -3   83.49   19.60
  -1  -1  -3   45.10   16.10
  -1  -1  -3   54.29    7.10
  -1  -1  -3   95.29   26.40
  -1  -1  -3   79.09   15.00
  -1  -1  -3   52.59   13.00
  -1  -1  -3   71.19   13.00
  -1  -1  -3   41.80   17.80
  -1  -1  -3   82.09   10.40
  -2  -1  -3 2900.91  209.38
  -2  -1  -3 3273.97  232.08
  -2  -1  -3 2594.14  205.78
  -2  -1  -3 3071.99  201.98
  -2  -1  -3 3047.99  208.58
  -2  -1  -3 2407.56  227.38
  -2  -1  -3 3082.19  200.08
  -2  -1  -3 3046.30  213.48
  -2  -1  -3 3105.69  199.08
  -3  -1  -3  923.81   66.09
  -3  -1  -3  893.41   80.49
  -3  -1  -3  858.01   62.99
  -3  -1  -3 1005.70  125.99
  -3  -1  -3 1007.80   76.39
   3   1   3  940.31   81.79
  -4  -1  -3  334.67   56.19
  -4  -1  -3  439.76   37.40
  -4  -1  -3  397.66   58.19
  -4  -1  -3  468.75   60.99
  -4  -1  -3  486.65   88.69
   4   1   3  449.95   65.59
  -5  -1  -3   40.80   37.80
  -5  -1  -3   38.60   24.30
  -5  -1  -3   37.60   25.10
   5   1   3   -2.10   19.20
  -6  -1  -3 1647.64  159.78
  -6  -1  -3 1908.21  227.88
   6   1   3 1723.13  165.08
   6   1   3 1680.63  161.28
  -7  -1  -3  676.43  113.89
  -7  -1  -3  652.13  106.79
  -7  -1  -3  716.13  166.98
   7   1   3  458.95   92.19
   7   1   3  543.85  102.19
  -8  -1  -3   90.49   47.00
   8   1   3   97.19   54.89
   8   1   3   -7.40   38.30
  -9  -1  -3   66.79   50.29
   9   1   3   65.89   58.69
   9   1   3   65.09   60.19
 -10  -1  -3  437.66  112.99
  10   1   3  352.76  110.89
   9  -2  -3  165.58   89.49
   8  -2  -3  727.93  143.09
   7  -2  -3 1301.37  151.68
   7  -2  -3 1314.57  178.98
   6  -2  -3    6.10   23.70
   6  -2  -3   -1.70   30.60
  -6   2   3   26.00   36.40
   5  -2  -3  485.75   72.79
   5  -2  -3  570.44   93.99
  -5   2   3  629.74  104.09
   4  -2  -3   93.79   27.70
   4  -2  -3   71.99   32.20
  -4   2   3   70.39   35.40
   3  -2  -3  582.24   75.89
   3  -2  -3  638.34   63.19
  -3   2   3  655.63   98.69
   2  -2  -3  -11.30   11.90
   2  -2  -3   -3.50   12.00
   2  -2  -3   10.90   10.80
  -2   2   3   25.80   23.50
   1  -2  -3 2159.88  173.28
   1  -2  -3 2243.88  175.78
   1  -2  -3 2343.27  163.28
   1  -2  -3 2375.56  175.28
  -1   2   3 2446.46  194.18
  -1   2   3 2296.37  179.68
   0  -2  -3 1267.27   87.89
   0  -2  -3 1228.08   96.89
   0  -2  -3 1170.68   95.89
   0  -2  -3 1161.98   96.19
   0  -2  -3 1366.36   94.89
   0   2   3 1160.48  118.59
   0   2   3 1153.98  100.59
  -1  -2  -3 8532.95  591.84
  -1  -2  -3 8914.81  588.24
  -1  -2  -3 9297.07  591.04
  -1  -2  -3 9197.88  593.94
  -1  -2  -3 8290.27  590.34
  -1  -2  -3 9029.50  592.24
  -1  -2  -3 9554.34  600.54
  -1  -2  -3 8706.53  590.64
  -1  -2  -3 8914.91  611.14
  -1  -2  -3 8827.12  594.74
  -2  -2  -3 3440.76  236.28
  -2  -2  -3 3366.76  230.48
  -2  -2  -3 3181.38  239.98
  -2  -2  -3 3571.64  239.88
  -2  -2  -3 3352.86  228.68
  -3  -2  -3  238.68   30.60
  -3  -2  -3  205.98   43.40
  -3  -2  -3  276.57   29.90
  -3  -2  -3  278.17   33.40
  -3  -2  -3  221.08   25.40
  -3  -2  -3  224.88   25.40
  -3  -2  -3  297.97   42.50
   3   2   3  370.96   76.59
  -4  -2  -3  266.47   27.50
  -4  -2  -3  235.98   31.00
  -4  -2  -3  356.26   59.39
  -4  -2  -3  175.78   37.40
  -4  -2  -3  325.57   42.50
   4   2   3  178.08   37.30
  -5  -2  -3 1139.49  123.49
  -5  -2  -3  639.14   57.69
  -5  -2  -3  742.13   74.39
  -5  -2  -3  746.23   64.19
   5   2   3  714.33   87.39
  -6  -2  -3 2593.34  207.48
  -6  -2  -3 2592.84  224.08
   6   2   3 2611.84  213.58
  -7  -2  -3    3.30   25.30
   7   2   3  -26.90   18.80
  -8  -2  -3  542.15  103.59
   8   2   3  383.86   90.19
  -9  -2  -3  417.66  104.19
   9   2   3  378.96  105.59
   9   2   3  299.47   90.69
 -10  -2  -3  440.46  113.79
  10   2   3  387.56  114.39
  10   2   3  865.41  160.88
   8  -3  -3   10.80   51.89
   7  -3  -3  572.94  125.59
   6  -3  -3 1580.34  153.08
   6  -3  -3 1686.83  203.28
   5  -3  -3  212.58   62.79
   5  -3  -3  167.38   43.70
  -5   3   3  271.07   58.79
   4  -3  -3 3103.09  264.97
   4  -3  -3 2980.80  232.38
   4  -3  -3 3201.58  247.48
  -4   3   3 2930.01  236.88
   3  -3  -3  635.24   73.59
   3  -3  -3  614.14   90.79
   3  -3  -3  656.83   86.79
  -3   3   3  658.83   90.39
  -3   3   3  715.33  123.59
   2  -3  -3  204.28   33.70
   2  -3  -3  199.38   39.00
   2  -3  -3  264.07   50.39
  -2   3   3  100.49   44.70
  -2   3   3  250.17   47.90
  -2   3   3  311.27   77.09
   1  -3  -3  764.02   65.49
   1  -3  -3  708.23   75.39
   1  -3  -3  807.72   65.49
  -1   3   3  769.22  104.89
  -1   3   3 1167.88  143.89
  -1   3   3  795.92   76.89
   0  -3  -3  387.06   50.19
   0  -3  -3  402.76   32.60
   0  -3  -3  491.35   61.29
   0  -3  -3  395.86   35.00
   0  -3  -3  450.45   52.69
   0   3   3  405.86   80.19
   0   3   3  427.56   46.20
  -1  -3  -3  905.61   74.59
  -1  -3  -3  969.00   64.89
  -1  -3  -3 1001.50   82.09
  -1  -3  -3  937.61   74.39
  -1  -3  -3  898.01   82.39
   1   3   3 1041.90  100.49
  -2  -3  -3 1158.28   89.39
  -2  -3  -3 1201.58   83.09
  -2  -3  -3 1194.48   91.39
  -2  -3  -3 1236.38   81.39
  -2  -3  -3 1092.29   98.79
  -2  -3  -3 1413.56  108.69
   2   3   3 1095.69  113.69
   2   3   3 1128.59  111.49
  -3  -3  -3 1863.51  132.09
  -3  -3  -3 1867.41  134.89
  -3  -3  -3 1863.91  129.59
  -3  -3  -3 1705.33  150.78
  -3  -3  -3 1883.61  157.08
  -3  -3  -3 1789.92  125.79
   3   3   3 2153.08  185.98
  -4  -3  -3 3276.57  222.68
  -4  -3  -3 2891.81  242.18
  -4  -3  -3 3176.08  226.48
  -4  -3  -3 3248.97  223.68
  -4  -3  -3 3473.95  260.17
   4   3   3 3157.18  235.48
   4   3   3 3364.76  289.27
  -5  -3  -3 3341.57  242.28
  -5  -3  -3 3467.15  240.38
  -5  -3  -3 3319.87  276.57
  -5  -3  -3 3304.97  234.28
   5   3   3 3343.67  251.67
  -6  -3  -3   95.19   43.10
  -6  -3  -3  129.89   29.90
  -6  -3  -3  120.69   35.60
  -6  -3  -3  148.69   30.30
   6   3   3  133.89   37.90
  -7  -3  -3  383.46   68.19
  -7  -3  -3  264.47   76.79
   7   3   3  434.96   77.69
  -8  -3  -3  153.48   65.39
   8   3   3  -10.50   31.90
  -9  -3  -3 2324.77  268.57
   9   3   3 1898.61  238.58
 -10  -3  -3  609.44  133.29
  10   3   3  630.94  136.69
 -11  -3  -3  285.47   99.39
  11   3   3   28.50   77.69
   8  -4  -3  115.69   76.59
  -8   4   3  -51.69   54.89
  -8   4   3    0.20   73.59
   7  -4  -3   73.19   65.99
  -7   4   3  -43.00   52.79
  -7   4   3   73.19   68.89
   6  -4  -3   88.29   54.59
  -6   4   3  127.59   78.69
  -6   4   3  204.08   77.69
   5  -4  -3   -3.10   40.20
  -5   4   3  -16.20   17.80
  -5   4   3    4.20   40.60
  -5   4   3  -30.10   34.20
   4  -4  -3  239.58   62.59
   4  -4  -3  228.08   63.99
  -4   4   3  287.47   83.39
  -4   4   3  438.76   68.49
  -4   4   3  296.17   92.19
   3  -4  -3 4038.20  306.67
   3  -4  -3 3792.92  282.97
   3  -4  -3 4026.00  295.57
  -3   4   3 3844.62  285.87
  -3   4   3 3801.52  328.27
  -3   4   3 3585.54  330.27
   2  -4  -3   98.29   32.30
   2  -4  -3   92.39   34.20
   2  -4  -3   42.50   17.40
  -2   4   3  107.49   59.49
  -2   4   3  157.48   58.69
  -2   4   3   92.99   29.90
   1  -4  -3 3233.28  221.08
   1  -4  -3 2881.61  234.98
   1  -4  -3 3033.40  225.98
  -1   4   3 3125.59  224.28
  -1   4   3 3391.56  277.17
   0  -4  -3 2102.99  156.68
   0   4   3 1881.61  147.39
   0   4   3 1991.50  186.38
  -1  -4  -3 1113.99   90.99
  -1  -4  -3 1276.67  104.19
   1   4   3 1083.79   90.69
   1   4   3 1163.98  137.09
  -2  -4  -3  956.10  105.49
  -2  -4  -3  944.11   76.59
  -2  -4  -3  953.20   78.59
  -2  -4  -3  962.90  109.79
   2   4   3  874.91  113.79
   2   4   3  935.21  115.89
  -3  -4  -3   -5.90   19.50
  -3  -4  -3   27.80   21.50
  -3  -4  -3    6.50    5.40
  -3  -4  -3   29.50   12.90
  -3  -4  -3    1.90    9.00
   3   4   3   -2.30   22.20
  -4  -4  -3 1422.56  152.38
  -4  -4  -3 1287.97  104.79
  -4  -4  -3 1253.37   89.69
  -4  -4  -3 1352.96  101.89
   4   4   3 1532.15  191.88
  -5  -4  -3  136.89   30.50
  -5  -4  -3  271.97   38.00
  -5  -4  -3  313.47   74.79
  -5  -4  -3  251.57   34.50
   5   4   3  198.98   41.20
   5   4   3  186.18   80.49
  -6  -4  -3 1066.09   91.59
  -6  -4  -3 1250.27  168.78
  -6  -4  -3 1056.79   95.59
  -6  -4  -3 1026.80   94.09
   6   4   3  979.60  118.79
  -7  -4  -3  124.09   38.30
  -7  -4  -3  171.38   63.99
  -7  -4  -3  188.98   40.10
  -7  -4  -3  269.47   49.90
   7   4   3  206.58   52.89
  -8  -4  -3 2163.98  255.67
   8   4   3 1892.31  209.18
  -9  -4  -3  274.47   93.89
   9   4   3  276.67   79.49
 -10  -4  -3  149.99   74.09
  10   4   3  234.38   80.69
 -11  -4  -3   -4.50   47.40
  11   4   3  -22.70   60.19
  -7   5   3   20.20   77.69
  -7   5   3  113.49   92.89
   6  -5  -3  277.47   82.59
  -6   5   3  352.86  125.69
  -6   5   3  244.88   98.69
   5  -5  -3    8.30   44.30
  -5   5   3   45.10   54.19
  -5   5   3   57.79   66.99
   4  -5  -3    8.90   33.30
  -4   5   3    5.40   41.00
  -4   5   3    1.40   40.40
   3  -5  -3  390.06   76.59
  -3   5   3  202.18   85.39
  -3   5   3  327.07  100.29
   2  -5  -3   18.80   26.10
  -2   5   3    8.50   30.20
  -2   5   3   12.80   45.60
   1  -5  -3    6.50   27.10
  -1   5   3   76.29   51.29
  -1   5   3   16.00   14.60
   0   5   3 4820.92  372.36
   0   5   3 4489.75  323.07
   1   5   3 3483.05  279.07
   1   5   3 3267.57  246.28
   1   5   3 3818.62  286.07
  -2  -5  -3 1259.07  119.89
  -2  -5  -3 1281.97  102.29
   2   5   3 1315.07  109.79
   2   5   3 1041.50  141.09
   2   5   3 1445.06  160.08
  -3  -5  -3 2673.33  197.18
  -3  -5  -3 3008.50  223.88
  -3  -5  -3 2711.43  194.98
   3   5   3 2325.57  227.98
  -4  -5  -3  531.35   64.09
  -4  -5  -3  502.35   61.39
  -4  -5  -3  583.64   93.49
  -4  -5  -3  599.74   50.59
   4   5   3  760.92  132.39
  -5  -5  -3  667.63   78.09
  -5  -5  -3  786.02   70.19
  -5  -5  -3  672.73  114.79
   5   5   3  702.43  142.09
  -6  -5  -3  276.57   42.20
  -6  -5  -3  210.38   69.69
  -6  -5  -3  330.87   50.19
  -6  -5  -3  330.57   49.40
  -6  -5  -3  367.66   55.19
   6   5   3  294.57   57.59
   6   5   3  329.57  104.39
  -7  -5  -3 1270.67  129.79
  -7  -5  -3 1137.89  105.79
  -7  -5  -3 1356.86  192.38
   7   5   3  936.51  123.39
  -8  -5  -3  147.09   74.09
   8   5   3  148.09   53.09
  -9  -5  -3  519.15  125.49
   9   5   3  680.13  118.59
 -10  -5  -3  -12.80   50.09
  10   5   3   10.50   41.80
 -11  -5  -3  650.73  153.58
  11   5   3 1009.30  169.28
  -6   6   3  103.19   93.29
  -6   6   3  -13.80   65.99
  -5   6   3 2102.49  308.27
  -5   6   3 1923.31  312.57
   4  -6  -3 1032.00  154.28
  -4   6   3 1021.90  200.48
  -4   6   3  888.71  184.78
   3  -6  -3  194.98   67.09
  -3   6   3  203.88  101.69
  -3   6   3  222.88   92.49
   2  -6  -3  587.44  101.19
  -2   6   3  502.85  128.09
  -1   6   3   49.60   45.30
   0   6   3  582.84  118.69
   1   6   3  306.57   72.49
   1   6   3  203.98   71.49
  -2  -6  -3  158.48   26.80
   2   6   3   93.29   44.60
   2   6   3  186.78   61.09
  -3  -6  -3  543.65   67.09
  -3  -6  -3  553.44   66.39
  -3  -6  -3  683.63   96.09
   3   6   3  579.04   98.79
   3   6   3  807.92  123.99
  -4  -6  -3 5376.06  371.86
  -4  -6  -3 5457.45  406.66
  -4  -6  -3 5063.49  366.86
   4   6   3 5091.19  423.46
  -5  -6  -3   20.10   29.10
  -5  -6  -3   14.80   16.70
  -5  -6  -3    5.00   14.50
   5   6   3   53.89   49.50
  -6  -6  -3 2109.49  237.38
  -6  -6  -3 1557.64  134.19
  -6  -6  -3 1458.85  136.79
   6   6   3 1398.86  225.18
   6   6   3 1839.32  153.08
  -7  -6  -3  884.71  112.09
  -7  -6  -3 1161.78  177.38
  -7  -6  -3 1179.38  118.19
   7   6   3  975.00  190.18
   7   6   3  723.93  111.29
  -8  -6  -3  767.82  153.68
  -8  -6  -3  628.04   96.29
  -8  -6  -3  777.92  100.69
   8   6   3  704.23  111.29
  -9  -6  -3  637.64  149.49
   9   6   3  549.85  105.39
 -10  -6  -3  111.59   77.39
  10   6   3   52.89   47.70
 -11  -6  -3  416.46  133.59
  11   6   3  290.67   99.49
   5  -7  -3   30.20   35.10
  -5   7   3  -19.60   76.39
  -5   7   3  -27.60   72.69
  -4   7   3   78.99   86.89
  -3   7   3   33.90   64.89
  -2   7   3 2174.38  289.97
  -1   7   3 3450.15  320.87
   0   7   3   30.30   37.50
   0   7   3   35.10   42.80
  -1  -7  -3  807.42   89.39
   1   7   3  850.01  138.19
   1   7   3  709.03  126.89
  -2  -7  -3   99.39   26.40
   2   7   3  124.69   53.89
   2   7   3  156.18   62.89
  -3  -7  -3  427.16   48.50
  -3  -7  -3  359.36   56.79
   3   7   3  234.48   69.09
   3   7   3  342.07   88.29
  -4  -7  -3  465.05   63.19
  -4  -7  -3  428.36   86.69
  -4  -7  -3  460.25   67.09
   4   7   3  322.07   91.49
  -5  -7  -3  355.96   57.59
  -5  -7  -3  505.85  101.79
  -5  -7  -3  309.77   52.69
   5   7   3  366.86  106.49
  -6  -7  -3   -5.70   17.60
  -6  -7  -3    5.10   14.90
   6   7   3   -9.40   41.70
  -7  -7  -3 1947.71  260.07
  -7  -7  -3 2083.29  184.48
  -7  -7  -3 2411.06  191.58
  -7  -7  -3 2360.26  186.78
   7   7   3 1964.90  191.28
   7   7   3 2609.14  334.37
  -8  -7  -3  629.64   94.79
  -8  -7  -3  579.54   97.29
  -8  -7  -3  798.42  166.98
   8   7   3  455.25   94.49
   8   7   3  641.04  164.68
  -9  -7  -3  460.55   90.49
  -9  -7  -3  497.05  135.29
   9   7   3  557.14  105.19
 -10  -7  -3  755.32  170.98
  10   7   3  295.67   82.19
 -11  -7  -3  286.67  114.59
  11   7   3  318.67   94.29
   4  -8  -3   28.40   39.80
  -4   8   3   78.19   83.09
   3  -8  -3  206.38   65.39
  -3   8   3  182.88  101.49
   2  -8  -3  -14.60   25.60
  -2   8   3   39.10   55.09
   1  -8  -3   13.50   26.40
  -1   8   3   13.60   47.20
   0  -8  -3  149.49   42.20
   0   8   3  252.77   83.99
   0   8   3  247.58   83.99
  -1  -8  -3  578.44   77.39
   1   8   3  496.25  118.69
   1   8   3  525.75  106.29
  -2  -8  -3 5254.77  360.46
   2   8   3 4885.11  425.46
   2   8   3 4884.91  401.46
  -3  -8  -3  800.62   96.29
   3   8   3  865.11  138.49
   3   8   3 1329.37  191.58
  -4  -8  -3  362.36   63.29
  -4  -8  -3  441.06   69.79
   4   8   3  433.36  112.49
  -5  -8  -3  223.78   45.60
  -5  -8  -3   82.49   55.79
  -5  -8  -3  143.29   41.30
   5   8   3  179.78   74.39
  -6  -8  -3   70.59   31.40
  -6  -8  -3  166.58   73.49
  -6  -8  -3  111.39   36.60
   6   8   3   19.80   49.30
  -7  -8  -3  775.62  105.39
  -7  -8  -3  691.83  101.09
  -7  -8  -3  495.85  131.39
   7   8   3  877.31  188.48
  -8  -8  -3   31.90   33.10
  -8  -8  -3   47.10   29.60
  -8  -8  -3  -26.80   38.60
   8   8   3    9.30   28.40
   8   8   3  -45.30   57.99
  -9  -8  -3  205.28   63.69
  -9  -8  -3   95.39   43.40
  -9  -8  -3  234.58  103.69
   9   8   3   70.09   47.80
 -10  -8  -3  610.34  172.88
  10   8   3  438.96   97.39
   3  -9  -3 2119.59  231.18
  -3   9   3 1341.57  245.28
   2  -9  -3   72.39   45.20
  -2   9   3  -14.70   60.59
   1  -9  -3   18.20   30.10
  -1   9   3  390.86  121.19
  -1   9   3   45.90   53.09
   0  -9  -3  202.98   52.49
   0   9   3  153.08   69.49
   0   9   3  190.58   87.19
  -1  -9  -3   66.99   35.10
   1   9   3   22.60   39.80
   1   9   3   32.30   55.49
   2   9   3  -11.40   31.90
   2   9   3   -7.90   39.30
   3   9   3  522.05  110.89
   3   9   3  702.23  149.59
  -4  -9  -3   19.20   21.80
   4   9   3  -11.50   38.40
  -5  -9  -3 2329.87  201.28
  -5  -9  -3 2366.66  197.68
   5   9   3 2890.81  344.27
  -6  -9  -3 2018.60  301.47
  -6  -9  -3 2329.17  195.88
   6   9   3 2517.85  332.07
  -7  -9  -3   25.60   26.60
  -7  -9  -3   31.10   29.20
   7   9   3   94.89   87.69
  -8  -9  -3   21.90   46.90
  -8  -9  -3   87.19   40.00
  -8  -9  -3  219.98   62.89
   8   9   3   53.29   40.80
   8   9   3   28.30   75.79
  -9  -9  -3   60.59   43.00
  -9  -9  -3  -28.90   57.79
   9   9   3   90.99   53.19
   9   9   3   95.19   78.89
 -10  -9  -3  461.85  141.89
  10   9   3  488.55  110.39
   2 -10  -3  674.93  124.59
  -2  10   3  658.53  177.58
   1 -10  -3  -31.00   31.50
  -1  10   3   14.80   55.49
  -1  10   3  -26.80   53.69
   0 -10  -3 1982.90  182.28
   0  10   3 1729.93  279.37
   0  10   3 1770.22  245.78
   1  10   3  750.22  146.39
   1  10   3 1185.08  205.98
   2  10   3  174.68   75.99
   2  10   3  138.39   83.59
   3  10   3   11.40   56.49
  -4 -10  -3   91.69   36.70
   4  10   3   48.10   73.69
  -5 -10  -3   44.60   29.80
  -5 -10  -3   92.49   35.60
   5  10   3   63.69   82.79
  -6 -10  -3   56.89   36.90
   6  10   3  -33.00   59.99
  -7 -10  -3  396.36   78.79
   7  10   3  206.48  107.09
  -8 -10  -3  469.75   93.19
  -8 -10  -3  579.44  151.48
   8  10   3  586.94  173.08
  -9 -10  -3 3568.94  412.26
  -9 -10  -3 2457.35  226.78
   9  10   3 2202.08  340.77
   9  10   3 2052.29  254.17
   1 -11  -3  385.46   95.59
  -1  11   3  197.28  119.39
   0  11   3  118.79  104.89
   1  11   3 1044.20  235.58
   2  11   3  366.96   96.79
   2  11   3  406.16  140.99
   3  11   3 1178.48  236.18
  -4 -11  -3 1289.47  152.58
   4  11   3 1527.35  269.07
  -5 -11  -3   57.99   35.40
   5  11   3  181.18  115.09
  -6 -11  -3   14.50   33.60
   6  11   3   20.30   76.69
  -7 -11  -3   46.00   36.60
   7  11   3  161.08  107.19
  -8 -11  -3   49.99   42.20
   8  11   3  -42.70   71.89
   2  12   3  384.16  151.68
   3  12   3   72.29   94.79
   4  12   3  373.06  150.08
  -5 -12  -3  611.14  104.49
   5  12   3 1057.69  232.58
  -6 -12  -3   41.30   39.30
   6  12   3   -6.20   90.49
  -7 -12  -3 1728.43  208.88
   7  12   3 1828.22  332.17
   7  11  -4  616.04  147.19
  -7 -11   4  453.65  103.39
  -7 -11   4  175.28   82.89
  -6 -11   4  755.42  128.59
  -6 -11   4  736.43  141.99
  -5 -11   4   16.70   37.50
  -5 -11   4  -64.19   36.50
   4  11  -4  176.68   83.09
  -4 -11   4  113.89   65.49
   3  11  -4  284.67  115.19
   3  11  -4  410.86  137.09
  -3 -11   4  218.38   79.39
   2  11  -4   48.90   87.59
   2  11  -4  338.87  124.69
  -2 -11   4  516.65  114.79
   1  11  -4  113.59   98.19
   1  11  -4  118.69  106.79
   0  11  -4  446.36  153.38
   0  11  -4  466.05  163.88
   8  10  -4  498.15  119.09
   7  10  -4  434.36  112.19
  -7 -10   4  262.87   79.19
  -7 -10   4  305.27   98.69
  -6 -10   4  307.07   94.69
  -6 -10   4  384.16   86.79
   5  10  -4  908.61  171.18
  -5 -10   4 1149.69  152.78
  -5 -10   4 1048.80  171.68
   4  10  -4   76.99   60.69
  -4 -10   4   72.29   50.19
   3  10  -4 1812.32  261.07
   3  10  -4 1685.13  249.88
  -3 -10   4 1313.67  185.38
   2  10  -4  258.57  112.29
   2  10  -4  401.26  134.39
   1  10  -4   15.60   60.39
   1  10  -4   -0.30   66.39
  -1 -10   4   71.99   58.69
   0  10  -4   93.39   83.79
   0  10  -4  186.18  110.49
   0 -10   4   90.09   58.59
   1 -10   4  317.87   89.39
   2 -10   4   42.30   57.39
   9   9  -4   24.30   50.39
   7   9  -4  309.27   89.49
  -7  -9   4  327.47  102.39
  -7  -9   4  316.77   85.29
   6   9  -4  635.24  131.99
  -6  -9   4  767.92  120.99
  -6  -9   4  814.52  150.98
   5   9  -4   10.80   48.70
  -5  -9   4  102.09   46.20
  -5  -9   4   93.59   51.99
   4   9  -4  665.23  132.39
  -4  -9   4  656.93  123.99
  -4  -9   4  615.04   97.29
   3   9  -4  390.66  108.79
   3   9  -4  270.97   94.69
  -3  -9   4  409.36   90.79
   2   9  -4 1774.22  247.28
   2   9  -4 1732.03  255.27
  -2  -9   4 1700.33  209.58
   1   9  -4  780.82  163.68
   1   9  -4  875.71  176.38
  -1  -9   4  811.72  139.69
   0   9  -4  581.84  156.28
   0  -9   4  754.72  129.79
  -1   9  -4 1328.47  259.17
   1  -9   4 1161.78  171.08
   2  -9   4   84.39   58.19
   3  -9   4  -44.20   36.20
   9   8  -4  100.29   67.69
   8   8  -4  263.37   79.49
   7   8  -4 1350.26  187.18
  -7  -8   4 1782.72  227.58
   6   8  -4  408.96   87.99
   6   8  -4  278.67   85.59
  -6  -8   4  228.18   62.79
  -6  -8   4  273.87   81.49
   5   8  -4  596.34  119.29
  -5  -8   4  473.45   81.89
  -5  -8   4  440.86   97.99
  -5  -8   4  374.46   76.09
   4   8  -4   20.80   38.60
  -4  -8   4  -15.00   21.00
  -4  -8   4   46.10   35.00
   3   8  -4  983.20  157.88
   3   8  -4  605.14  128.29
  -3  -8   4  751.72  118.69
  -3  -8   4  719.03  123.19
   2   8  -4  123.09   63.79
   2   8  -4   27.40   48.60
  -2  -8   4  -16.70   32.40
   1   8  -4  508.15  126.59
   1   8  -4  461.25  117.19
  -1  -8   4  583.14  107.09
   0   8  -4  186.98   83.99
   0  -8   4  476.95   99.09
  -1   8  -4  878.91  181.58
   1  -8   4 1012.10  147.89
   2  -8   4 1490.45  192.48
   3  -8   4  -32.10   35.20
   4  -8   4  885.51  150.88
  10   7  -4  342.37   99.59
   9   7  -4  522.25  111.99
   8   7  -4 1980.20  226.58
   7   7  -4   32.80   31.10
  -7  -7   4   28.30   44.10
   6   7  -4   92.39   58.59
   6   7  -4  157.48   54.29
  -6  -7   4   64.99   42.20
  -6  -7   4   69.19   47.60
   5   7  -4  159.78   64.19
  -5  -7   4  202.98   66.19
  -5  -7   4  197.68   53.89
   4   7  -4 1893.31  184.58
  -4  -7   4 1843.02  170.48
  -4  -7   4 1915.61  183.48
  -4  -7   4 1790.52  162.78
   3   7  -4 2252.27  222.88
   3   7  -4 2032.00  212.28
  -3  -7   4 2595.44  213.68
  -3  -7   4 2323.77  210.58
   2   7  -4  326.07   91.79
   2   7  -4  288.87   86.29
  -2  -7   4  550.64  100.79
   1   7  -4  133.39   70.49
   1   7  -4  124.69   63.59
  -1  -7   4  221.88   68.99
   0   7  -4  420.56  116.29
   0  -7   4  489.25   93.59
  -1   7  -4  413.36  114.99
   1  -7   4  425.56   85.19
   2  -7   4  641.04  113.69
  -3   7  -4   82.79   67.99
   3  -7   4  137.79   54.39
  -4   7  -4  509.95  149.69
   4  -7   4  548.45  155.48
   4  -7   4  435.06  103.99
  -5   7  -4 1815.32  302.27
   5  -7   4 1283.27  229.88
   5  -7   4 1352.06  187.88
  10   6  -4  -49.20   48.50
 -10  -6   4  -36.20   69.39
   9   6  -4  659.43  128.49
   8   6  -4   74.79   43.10
   7   6  -4  426.46   81.89
  -7  -6   4  636.74  116.39
   6   6  -4   12.50   39.00
   6   6  -4    0.90   22.50
  -6  -6   4   31.80   41.50
   5   6  -4 2935.71  246.98
  -5  -6   4 2469.35  220.98
  -5  -6   4 2903.41  250.77
   4   6  -4 1656.13  154.58
  -4  -6   4 1345.17  129.89
  -4  -6   4 1309.77  128.19
  -4  -6   4 1393.76  166.28
   3   6  -4   26.50   32.60
   3   6  -4    7.00   24.70
  -3  -6   4   39.30   23.90
  -3  -6   4   23.20   24.30
  -3  -6   4    8.40   34.70
   2   6  -4   29.90   33.90
   2   6  -4   43.50   36.60
  -2  -6   4   30.70   23.00
  -2  -6   4   41.30   37.50
   1   6  -4 1127.29  160.08
  -1  -6   4 1045.70  139.99
   0   6  -4 3979.70  335.27
   0  -6   4 3638.54  298.67
  -1   6  -4  250.57   82.69
  -1   6  -4  192.58   39.70
  -1   6  -4  218.78   42.70
   1  -6   4  336.97   70.79
  -2   6  -4 1013.80  111.09
  -2   6  -4  720.13  137.69
  -2   6  -4  659.43   83.39
   2  -6   4  854.51  118.99
  -3   6  -4   25.20   34.20
  -3   6  -4  -18.20   44.70
   3  -6   4   11.60   54.79
   3  -6   4  -14.40   27.00
  -4   6  -4  417.46  124.19
   4  -6   4  401.96  112.79
   4  -6   4  487.15   95.79
  -5   6  -4   45.80   62.99
   5  -6   4   57.49   64.09
   5  -6   4   24.20   37.10
  -6   6  -4  175.88  108.79
   6  -6   4   82.79   48.50
   6  -6   4  169.08   88.29
  10   5  -4 1627.74  229.28
 -10  -5   4 2339.17  341.37
   9   5  -4  776.52  135.39
  -9  -5   4  663.13  169.18
   8   5  -4    9.80   38.00
   7   5  -4  127.99   48.80
  -7  -5   4  153.08   55.79
   6   5  -4  337.57   66.59
  -6  -5   4  370.66   87.89
   5   5  -4 1159.78  135.99
   5   5  -4 1384.26  164.18
  -5  -5   4 1397.46  173.88
   4   5  -4   23.00   31.40
  -4  -5   4   31.20   28.20
  -4  -5   4   62.09   29.00
   3   5  -4  855.91  109.19
   3   5  -4  750.12  105.39
  -3  -5   4  690.23  106.49
  -3  -5   4  643.94  101.79
  -3  -5   4  895.71   99.19
   2   5  -4 1841.92  182.58
   2   5  -4 2760.12  217.28
   2   5  -4 2446.96  206.48
  -2  -5   4 2933.01  209.68
  -2  -5   4 2416.86  207.78
   1   5  -4 2533.45  195.18
   1   5  -4 2477.15  226.78
  -1  -5   4 2586.64  216.38
   0   5  -4   50.59   44.90
   0   5  -4    2.70   15.20
   0  -5   4    9.10   22.00
  -1   5  -4   37.10   19.60
  -1   5  -4   46.10   42.60
  -1   5  -4   32.80   19.80
   1  -5   4   20.90   26.00
  -2   5  -4  131.29   56.09
  -2   5  -4   64.59   22.50
  -2   5  -4   99.09   38.00
   2  -5   4  139.99   73.59
   2  -5   4  149.59   48.60
  -3   5  -4 2440.86  219.98
  -3   5  -4 2741.63  253.77
  -3   5  -4 2379.06  186.98
   3  -5   4 2867.11  224.28
   3  -5   4 2522.65  251.47
  -4   5  -4  557.84  130.79
  -4   5  -4  918.41  139.09
   4  -5   4  723.03  113.09
   4  -5   4  612.44  133.99
  -5   5  -4  143.79   92.39
  -5   5  -4  156.38   63.09
   5  -5   4  136.19   51.79
   5  -5   4  312.37   91.69
  -6   5  -4   40.40   73.49
   6  -5   4    4.40   28.20
   6  -5   4   70.79   60.89
  -7   5  -4  194.98  131.09
   7  -5   4  200.58   92.69
  10   4  -4    6.40   64.59
 -10  -4   4   -0.10   82.09
   9   4  -4  712.93  125.49
  -9  -4   4  714.93  171.18
   8   4  -4   78.99   46.30
  -8  -4   4   -6.70   48.90
   7   4  -4 2592.84  218.88
  -7  -4   4 2476.95  206.38
   6   4  -4 2799.22  207.98
  -6  -4   4 2157.58  218.28
  -6  -4   4 2424.46  220.68
   5   4  -4  263.37   49.80
  -5  -4   4  233.98   65.69
  -5  -4   4  192.48   62.79
   4   4  -4   72.99   37.10
  -4  -4   4   67.79   42.80
   3   4  -4   71.69   34.20
  -3  -4   4   73.59   35.50
  -3  -4   4   61.29   26.00
   2   4  -4 2330.07  181.68
   2   4  -4 2249.87  186.18
   2   4  -4 2179.48  172.48
  -2  -4   4 1966.90  187.48
  -2  -4   4 2352.96  187.68
   1   4  -4   30.40   28.60
   1   4  -4   72.89   21.90
  -1  -4   4   57.79   28.90
  -1  -4   4   43.70   28.40
   0   4  -4  937.11   84.59
   0   4  -4  872.71  123.69
   0  -4   4 1178.48  128.39
  -1   4  -4  546.15   85.69
  -1   4  -4  510.55   47.80
  -1   4  -4  440.36   90.79
  -1   4  -4  504.75   56.99
   1  -4   4  360.26   65.59
  -2   4  -4 3081.19  231.58
  -2   4  -4 3056.79  213.48
  -2   4  -4 2767.92  249.58
   2  -4   4 3023.60  267.87
   2  -4   4 2934.71  236.28
  -3   4  -4  273.07   66.29
  -3   4  -4  275.17   35.60
  -3   4  -4  228.58   71.29
   3  -4   4  371.56   68.39
   3  -4   4  285.57   80.39
  -4   4  -4   47.80   55.59
   4  -4   4   64.79   49.20
   4  -4   4   18.80   24.70
  -5   4  -4   88.19   63.49
   5  -4   4   14.00   45.70
   5  -4   4   17.00   31.90
  -6   4  -4 1003.00  193.28
   6  -4   4 1123.19  185.28
  -7   4  -4 1511.35  262.67
   7  -4   4 1320.27  216.18
  -8   4  -4  -12.70   76.99
   8  -4   4  121.59   92.49
  10   3  -4  -57.69   48.00
 -10  -3   4   28.80   89.19
   9   3  -4  305.87  106.69
   9   3  -4  139.89   68.19
  -9  -3   4  225.98  111.29
   8   3  -4   23.00   37.30
  -8  -3   4   37.70   48.40
   7   3  -4   19.00   31.00
  -7  -3   4  128.39   65.69
   6   3  -4 1073.19  121.29
  -6  -3   4 1058.49  121.29
   5   3  -4 2018.50  155.88
  -5  -3   4 1807.12  173.18
  -5  -3   4 1728.23  172.28
   4   3  -4 1756.02  138.49
  -4  -3   4 1743.53  167.68
  -4  -3   4 1546.65  156.58
   3   3  -4 3794.92  280.57
  -3  -3   4 3841.82  300.07
   2   3  -4 1740.23  135.89
   2   3  -4 1615.14  128.99
  -2  -3   4 1555.44  130.89
  -2  -3   4 1469.85  141.79
  -2  -3   4 1683.53  147.59
   1   3  -4  657.73   84.59
   1   3  -4  487.85   60.69
  -1  -3   4  544.05   85.19
  -1  -3   4  616.14   81.49
   0   3  -4   18.70   21.40
   0   3  -4   64.99   18.40
   0   3  -4   82.69   35.50
   0  -3   4   52.69   26.80
  -1   3  -4 2281.17  201.78
  -1   3  -4 2220.38  180.98
  -1   3  -4 2313.97  163.58
  -1   3  -4 2062.09  157.08
  -1   3  -4 2446.56  181.18
   1  -3   4 2385.36  183.38
   1  -3   4 2071.09  201.48
  -2   3  -4 1965.50  141.59
  -2   3  -4 2004.10  173.18
  -2   3  -4 2160.18  196.78
  -2   3  -4 1870.31  163.58
   2  -3   4 1732.23  181.58
   2  -3   4 2006.40  163.58
  -3   3  -4  525.55   92.89
  -3   3  -4  430.66   75.49
  -3   3  -4  476.75   40.70
   3  -3   4  519.55   97.09
   3  -3   4  359.16   64.29
  -4   3  -4   60.69   40.90
  -4   3  -4  105.09   41.10
   4  -3   4   19.70   37.20
  -5   3  -4 1382.76  194.18
  -5   3  -4 1091.59  146.59
   5  -3   4 1262.67  173.88
  -6   3  -4  610.64  140.59
  -6   3  -4  785.02  123.39
   6  -3   4  555.34  124.29
  -7   3  -4    1.00   56.59
   7  -3   4   13.70   49.20
  -8   3  -4   43.20   79.89
   8  -3   4   24.10   59.59
  10   2  -4  699.63  147.09
   9   2  -4   43.20   53.59
  -9  -2   4  258.87  126.49
   8   2  -4 1128.99  184.98
   8   2  -4 1619.84  188.58
  -8  -2   4 1674.13  258.27
   7   2  -4   88.79   40.60
  -7  -2   4  109.69   65.69
   6   2  -4  669.33   93.99
  -6  -2   4  741.23  141.99
   5   2  -4 1330.77  113.49
  -5  -2   4 1384.16  179.48
  -5  -2   4 1141.39  111.79
  -5  -2   4 1340.87  153.48
   4   2  -4  136.39   30.90
  -4  -2   4  274.87   59.09
  -4  -2   4  211.98   53.69
  -3  -2   4  166.08   43.70
  -3  -2   4  102.29   40.70
   2   2  -4 3544.95  234.18
   2   2  -4 3148.08  240.58
  -2  -2   4 3020.00  264.07
  -2  -2   4 3584.74  264.77
   1   2  -4    3.20   18.20
   1   2  -4   25.40   12.50
   1   2  -4   11.80   14.40
   1   2  -4   24.40   19.40
   1   2  -4   38.00   16.90
  -1  -2   4   29.90   26.40
  -1  -2   4   37.60   22.80
   0   2  -4 5696.63  385.66
   0   2  -4 5610.44  385.16
   0   2  -4 5143.29  390.26
   0   2  -4 5466.35  366.56
   0   2  -4 5366.26  375.66
   0  -2   4 5574.64  395.66
  -1   2  -4 1762.02  135.39
  -1   2  -4 1690.23  125.99
  -1   2  -4 1869.71  158.58
  -1   2  -4 1658.63  136.19
  -1   2  -4 1751.12  134.49
   1  -2   4 1713.03  160.48
   1  -2   4 1594.44  141.39
  -2   2  -4  737.33   77.69
  -2   2  -4  430.66   53.29
  -2   2  -4  619.74   76.19
  -2   2  -4  774.62  116.39
  -2   2  -4  625.54   85.29
  -2   2  -4  657.03   50.29
   2  -2   4  677.03   97.79
   2  -2   4  630.74   77.79
  -3   2  -4  509.45   75.79
  -3   2  -4  485.25   43.90
  -3   2  -4  722.73  103.29
  -3   2  -4  530.95   40.20
   3  -2   4  527.55   89.49
  -4   2  -4  275.07   74.69
  -4   2  -4  273.57   57.79
  -4   2  -4  242.58   26.80
   4  -2   4  256.97   63.69
  -5   2  -4 1760.92  172.08
  -5   2  -4 2061.19  206.78
   5  -2   4 2083.19  196.18
  -6   2  -4   11.90   58.79
  -6   2  -4   25.80   27.80
   6  -2   4   38.20   47.20
  -7   2  -4  386.96  119.59
  -7   2  -4  490.85   92.39
   7  -2   4  261.97   87.69
  -8   2  -4  460.65  136.69
  -8   2  -4  504.65  105.79
   8  -2   4  276.67   97.49
  -9   2  -4  403.36  144.49
  -9   2  -4  664.13  132.59
   9  -2   4  622.54  147.69
  10   1  -4    1.40   57.79
   9   1  -4   54.49   55.69
   8   1  -4 1188.68  178.88
   8   1  -4 1281.97  167.88
  -8  -1   4 1215.78  238.38
   7   1  -4 2382.06  224.08
   7   1  -4 2253.87  205.38
  -7  -1   4 2061.29  287.07
   6   1  -4    4.60   25.90
  -6  -1   4  -11.60   36.30
   5   1  -4 2335.77  178.08
  -5  -1   4 2079.89  218.58
   4   1  -4  212.18   35.80
  -4  -1   4  128.59   38.80
  -4  -1   4  204.58   39.70
  -4  -1   4  181.48   61.89
   3   1  -4  385.96   45.00
  -3  -1   4  495.25   90.19
  -3  -1   4  438.66   66.09
  -3  -1   4  340.17   60.99
   2   1  -4  977.40   88.79
  -2  -1   4  940.21   97.79
  -2  -1   4 1053.29  119.39
  -2  -1   4 1098.99  107.59
   1   1  -4  204.48   40.80
   1   1  -4  240.78   28.50
   1   1  -4  223.88   28.40
  -1  -1   4  179.28   48.10
  -1  -1   4   98.89   34.90
  -1  -1   4  180.08   41.70
   0   1  -4   27.20   14.70
   0   1  -4   51.29   19.70
   0   1  -4   13.80   13.60
   0   1  -4   21.30    8.20
   0   1  -4   70.79   23.10
   0  -1   4   26.30   22.30
  -1   1  -4 2637.64  212.08
  -1   1  -4 2739.63  190.58
  -1   1  -4 2520.85  191.18
  -1   1  -4 2687.33  189.48
  -1   1  -4 2491.25  188.18
  -1   1  -4 2813.32  183.78
   1  -1   4 2635.44  215.38
  -2   1  -4  446.86   50.49
  -2   1  -4  566.84   73.69
  -2   1  -4  272.37   66.89
  -2   1  -4  451.05   53.49
  -2   1  -4  412.96   36.30
  -2   1  -4  401.16   38.10
   2  -1   4  429.46   69.29
  -3   1  -4 2081.49  181.98
  -3   1  -4 2272.37  166.78
  -3   1  -4 2110.89  143.29
  -3   1  -4 2047.00  159.78
   3  -1   4 1908.41  176.18
  -4   1  -4 3580.24  295.87
  -4   1  -4 3418.26  267.17
  -4   1  -4 3614.24  281.37
   4  -1   4 3672.93  286.07
  -5   1  -4  802.62  135.79
  -5   1  -4  753.82  101.29
   5  -1   4  814.52  122.69
  -6   1  -4  864.91  121.49
  -6   1  -4  940.51  163.88
   6  -1   4  717.83  124.59
  -7   1  -4   55.99   53.69
  -7   1  -4    0.70   23.30
   7  -1   4   18.70   42.30
  -8   1  -4 1409.16  178.08
  -8   1  -4 1533.55  237.48
   8  -1   4  952.90  174.38
  -9   1  -4  400.66  106.89
  -9   1  -4  474.15  146.39
   9  -1   4  277.17  102.19
   9   0  -4   29.40   53.09
   8   0  -4   34.20   49.80
  -8   0   4   21.60   72.69
   7   0  -4   95.99   49.70
   7   0  -4  -13.60   42.00
  -7   0   4   13.50   60.19
   6   0  -4   97.19   44.80
   6   0  -4   80.59   45.30
  -6   0   4   98.89   66.19
   5   0  -4  487.05   74.69
  -5   0   4  600.84  128.59
   4   0  -4 6596.74  418.16
  -4   0   4 5512.75  433.16
  -4   0   4 5705.53  466.05
   3   0  -4 1478.25  109.49
   3   0  -4 1463.85  119.59
  -3   0   4 1634.44  157.48
  -3   0   4 1295.87  127.29
   2   0  -4 1189.68   97.19
   2   0  -4 1178.98   83.19
  -2   0   4 1208.68   99.39
  -2   0   4 1110.39  105.49
  -2   0   4  960.20  132.89
   1   0  -4 2025.30  147.59
   1   0  -4 1941.21  145.49
   1   0  -4 2094.19  146.79
   1   0  -4 1936.81  141.89
  -1   0   4 1919.51  182.58
  -1   0   4 1505.55  149.88
   0   0  -4  438.66   45.80
   0   0  -4  500.85   44.20
   0   0  -4  442.56   57.29
   0   0  -4  484.95   64.79
   0   0  -4  427.96   59.89
   0   0  -4  450.35   43.30
   0   0  -4  564.04   79.09
   0   0  -4  449.36   75.49
   0   0  -4  441.76   43.60
  -1   0  -4 2763.92  200.38
  -1   0  -4 2503.55  188.68
  -1   0  -4 2323.37  193.08
  -1   0  -4 2490.55  180.28
  -1   0  -4 2361.96  186.88
  -1   0  -4 2623.04  195.58
  -1   0  -4 2537.25  170.58
  -1   0  -4 2404.46  191.78
  -1   0  -4 2599.84  171.88
  -2   0  -4    2.10   12.70
  -2   0  -4   -9.10   16.10
  -2   0  -4    9.80   11.00
  -2   0  -4   36.40   22.90
  -2   0  -4   17.70    9.80
  -2   0  -4   12.30    8.00
  -3   0  -4  362.06   27.80
  -3   0  -4  454.85   51.09
  -3   0  -4  374.16   31.50
  -3   0  -4  373.96   50.59
  -3   0  -4  269.37   60.89
  -3   0  -4  391.46   33.70
   3   0   4  391.46   64.29
  -4   0  -4  351.16   56.99
  -4   0  -4  340.87   32.50
  -4   0  -4  518.15   64.79
  -4   0  -4  496.45   72.99
  -4   0  -4  388.46   82.69
   4   0   4  419.36   71.19
   4   0   4  481.65   77.89
  -5   0  -4 1569.74  145.29
  -5   0  -4 1721.33  142.79
  -5   0  -4 1406.16  186.28
   5   0   4 1355.36  162.18
   5   0   4 1497.95  149.99
  -6   0  -4  196.78   43.90
  -6   0  -4  225.68   83.29
  -6   0  -4  186.48   49.20
   6   0   4  146.69   58.49
   6   0   4  255.87   66.89
  -7   0  -4 1923.11  252.47
  -7   0  -4 2107.99  181.78
   7   0   4 1708.63  214.88
   7   0   4 1487.45  200.18
  -8   0  -4  384.06  127.09
  -8   0  -4  625.04  112.29
   8   0   4  315.87   92.99
  -9   0  -4  520.15  150.08
  -9   0  -4  250.17   75.09
   9   0   4  322.17  107.09
 -10   0  -4 -183.78   51.39
 -10   0  -4   63.09   52.59
  10   0   4  242.68   99.09
   9  -1  -4 1720.23  212.08
   9  -1  -4 2308.57  285.27
   8  -1  -4  105.09   63.49
   8  -1  -4  307.97   72.59
   7  -1  -4  127.69   45.20
   7  -1  -4  275.97   73.19
  -7   1   4  304.17  102.09
   6  -1  -4   79.39   43.70
   6  -1  -4  -20.30   19.50
  -6   1   4   65.69   55.09
   5  -1  -4  -14.80   12.20
   5  -1  -4   12.80   28.10
  -5   1   4   -6.80   37.10
   4  -1  -4  261.97   46.20
   4  -1  -4  225.38   49.40
  -4   1   4  268.57   80.59
   3  -1  -4   66.69   21.40
   3  -1  -4   49.00   20.90
  -3   1   4   58.89   36.30
  -3   1   4   28.00   21.80
   2  -1  -4  212.58   37.90
   2  -1  -4  179.48   30.90
  -2   1   4  167.78   52.39
   1  -1  -4 2091.09  166.58
   1  -1  -4 2168.28  150.68
   1  -1  -4 2207.48  155.68
   1  -1  -4 1988.80  160.18
   1  -1  -4 2219.48  155.88
  -1   1   4 1986.90  183.48
   0  -1  -4 7173.28  497.85
   0  -1  -4 7200.28  527.45
   0  -1  -4 7938.11  510.75
   0  -1  -4 7447.85  505.55
   0  -1  -4 7206.98  517.75
   0  -1  -4 7345.86  504.85
   0  -1  -4 7485.65  495.15
   0  -1  -4 7755.72  517.55
   0  -1  -4 7547.65  491.55
  -1  -1  -4 1192.58  101.29
  -1  -1  -4 1169.98   93.49
  -1  -1  -4 1051.19   94.79
  -1  -1  -4  902.01  114.19
  -1  -1  -4 1261.77   99.19
  -1  -1  -4 1052.09   87.89
  -1  -1  -4 1129.09   85.79
  -2  -1  -4 1397.16   97.39
  -2  -1  -4 1343.27  100.89
  -2  -1  -4 1404.16  105.29
  -2  -1  -4 1432.16  117.49
  -2  -1  -4 1474.15  100.99
  -2  -1  -4 1287.67  110.19
  -3  -1  -4  319.97   38.30
  -3  -1  -4  263.57   24.60
  -3  -1  -4  273.97   40.20
  -3  -1  -4  290.57   38.90
  -3  -1  -4  261.17   22.90
  -3  -1  -4  213.18   55.39
  -4  -1  -4 1334.67   91.39
  -4  -1  -4 1282.57   95.69
  -4  -1  -4 1316.77  117.59
  -4  -1  -4 1503.55  176.28
  -4  -1  -4 1518.85  117.99
  -4  -1  -4 1455.75  113.09
   4   1   4 1361.16  121.49
  -5  -1  -4 1504.45  184.78
  -5  -1  -4 1212.98  112.09
  -5  -1  -4 1117.49  109.59
   5   1   4  976.90  121.69
  -6  -1  -4  774.22  108.39
  -6  -1  -4  837.32  147.09
   6   1   4  689.83  104.39
  -7  -1  -4   12.60   24.70
  -7  -1  -4    7.00   41.70
   7   1   4   -8.40   26.50
   7   1   4  -17.00   31.50
  -8  -1  -4 1070.79  151.48
  -8  -1  -4 1177.88  202.68
   8   1   4  926.61  154.38
   8   1   4 1368.26  179.78
  -9  -1  -4   32.00   72.69
  -9  -1  -4   14.50   35.70
   9   1   4  186.38   76.69
   9   1   4  141.79   76.89
 -10  -1  -4  900.61  205.38
 -10  -1  -4  904.61  158.48
  10   1   4  792.12  167.88
   9  -2  -4   15.10   58.69
   8  -2  -4  135.49   69.79
   8  -2  -4  178.38   59.59
   7  -2  -4   26.60   47.60
   7  -2  -4   31.50   35.70
   6  -2  -4 3458.45  294.27
   6  -2  -4 3580.84  277.27
  -6   2   4 3317.37  296.87
   5  -2  -4 1729.43  148.09
   5  -2  -4 1389.76  168.08
  -5   2   4 1732.23  175.08
   4  -2  -4   71.49   33.00
   4  -2  -4   98.59   29.20
  -4   2   4  197.88   64.39
   3  -2  -4   70.29   22.90
   3  -2  -4   67.09   27.70
  -3   2   4   36.90   35.70
   2  -2  -4   38.10   15.30
   2  -2  -4   38.70   22.70
   2  -2  -4   20.50   18.10
  -2   2   4   56.39   32.70
  -2   2   4   83.29   39.20
   1  -2  -4  589.24   62.79
   1  -2  -4  473.95   48.40
   1  -2  -4  599.04   72.99
   1  -2  -4  569.24   65.69
   1  -2  -4  621.94   72.39
  -1   2   4  627.54   93.99
  -1   2   4  559.94   82.59
   0  -2  -4  115.89   24.60
   0  -2  -4  136.39   25.60
   0  -2  -4  140.49   28.20
   0  -2  -4  139.59   20.70
   0  -2  -4  145.29   23.70
   0   2   4  160.08   36.70
  -1  -2  -4  118.19   19.70
  -1  -2  -4   55.09   26.40
  -1  -2  -4   83.49   20.80
  -1  -2  -4   98.89   24.90
  -1  -2  -4  103.39   19.20
  -1  -2  -4  109.69   18.40
  -1  -2  -4   98.39   19.40
  -1  -2  -4  124.29   18.60
  -1  -2  -4  115.79   23.10
  -2  -2  -4 1339.07   92.99
  -2  -2  -4 1124.59   94.79
  -2  -2  -4 1245.88   88.79
  -2  -2  -4 1102.99   94.79
  -2  -2  -4 1180.18   92.49
  -2  -2  -4 1190.28   89.79
  -3  -2  -4 7705.13  537.25
  -3  -2  -4 7901.41  519.85
  -3  -2  -4 8134.99  522.75
  -3  -2  -4 7645.83  529.75
  -3  -2  -4 7764.32  523.75
  -4  -2  -4  507.05   64.69
  -4  -2  -4  491.95   43.70
  -4  -2  -4  434.56   64.89
  -4  -2  -4  506.95   59.99
  -4  -2  -4  521.05   43.20
  -4  -2  -4  434.06   90.39
  -4  -2  -4  411.46   37.80
   4   2   4  464.05   62.89
  -5  -2  -4 1077.39  115.19
  -5  -2  -4  729.13   88.59
  -5  -2  -4  792.12   67.59
  -5  -2  -4 1362.96  173.78
  -5  -2  -4  769.72   61.79
   5   2   4  895.41  101.89
  -6  -2  -4  282.57   55.79
  -6  -2  -4  227.68   57.79
  -6  -2  -4  201.48   86.39
   6   2   4  273.07   59.89
  -7  -2  -4 1066.99  141.49
   7   2   4  980.00  135.89
  -8  -2  -4 1002.20  147.39
   8   2   4  776.82  131.19
  -9  -2  -4   -8.80   29.60
   9   2   4   -8.70   36.30
 -10  -2  -4  164.28   75.59
  10   2   4  227.58  101.39
  10   2   4  242.98   95.19
   8  -3  -4  221.38   91.79
   7  -3  -4  342.97   96.19
   6  -3  -4   90.59   50.89
   6  -3  -4  199.28   53.29
  -6   3   4  144.39   53.99
   5  -3  -4  530.05   93.09
   5  -3  -4  433.56   73.29
  -5   3   4  561.74   95.09
   4  -3  -4  609.74   80.89
   4  -3  -4  692.73   96.89
   4  -3  -4  542.15   97.29
  -4   3   4  647.44  101.79
   3  -3  -4 2386.46  191.18
   3  -3  -4 2500.95  198.08
   3  -3  -4 2453.75  210.98
  -3   3   4 2842.32  214.48
  -3   3   4 2356.66  230.78
   2  -3  -4 4872.51  342.57
   2  -3  -4 4690.63  360.26
   2  -3  -4 5219.78  346.47
  -2   3   4 4780.32  361.46
  -2   3   4 5012.40  388.36
   1  -3  -4  236.48   33.00
   1  -3  -4  219.18   32.20
   1  -3  -4  277.47   47.80
  -1   3   4  291.17   55.29
  -1   3   4  173.88   58.29
   0  -3  -4  541.85   65.99
   0  -3  -4  664.73   44.70
   0  -3  -4  585.64   68.29
   0  -3  -4  548.65   69.39
   0  -3  -4  565.74   49.60
   0   3   4  708.03  112.09
   0   3   4  670.03   80.49
  -1  -3  -4   44.50   17.70
  -1  -3  -4   55.69    9.50
  -1  -3  -4   66.19   19.00
  -1  -3  -4   57.89   16.70
  -1  -3  -4   44.60   14.00
   1   3   4   49.40   30.40
  -2  -3  -4 1065.29   82.89
  -2  -3  -4 1069.49   80.69
  -2  -3  -4 1011.60   87.59
  -2  -3  -4  958.90   79.69
  -2  -3  -4 1054.89   90.49
   2   3   4 1124.09  143.59
  -3  -3  -4 1009.00   73.69
  -3  -3  -4  915.81  103.69
  -3  -3  -4  995.10   78.49
  -3  -3  -4  944.71   75.39
  -3  -3  -4  859.81   99.89
   3   3   4 1367.36  183.98
  -4  -3  -4  147.09   25.10
  -4  -3  -4  101.59   36.20
  -4  -3  -4  153.18   37.00
  -4  -3  -4  172.78   26.50
  -4  -3  -4  138.79   22.70
  -4  -3  -4  157.28   22.70
   4   3   4  138.69   58.39
  -5  -3  -4    9.50   21.70
  -5  -3  -4    6.00    8.90
  -5  -3  -4    9.40   11.10
  -5  -3  -4   -0.70   12.40
   5   3   4   25.40   20.60
   5   3   4   -7.40   38.90
  -6  -3  -4 3071.59  240.88
  -6  -3  -4 3309.87  234.58
  -6  -3  -4 3825.32  274.67
  -6  -3  -4 2997.00  225.98
   6   3   4 3330.77  253.77
  -7  -3  -4  678.43  111.09
  -7  -3  -4  822.22  103.29
   7   3   4  920.81  117.69
  -8  -3  -4  141.79   56.39
   8   3   4  177.58   62.49
  -9  -3  -4  282.17   80.79
   9   3   4  256.07   80.29
 -10  -3  -4  401.86  105.29
  10   3   4  316.57   92.19
 -11  -3  -4  608.64  140.19
  11   3   4  372.76  118.09
   7  -4  -4 1027.70  170.78
  -7   4   4  821.42  192.58
   6  -4  -4    8.10   45.70
  -6   4   4  -24.20   51.39
   5  -4  -4   23.40   39.80
   5  -4  -4    0.30   21.40
   5  -4  -4    3.70   32.00
  -5   4   4   39.20   50.79
  -5   4   4   16.70   24.30
   4  -4  -4  468.85   91.39
   4  -4  -4  437.36   69.49
   4  -4  -4  359.26   72.59
  -4   4   4  266.37   89.29
  -4   4   4  473.25   77.39
   3  -4  -4  199.78   54.59
   3  -4  -4  141.79   37.20
   3  -4  -4  272.57   56.19
  -3   4   4  122.29   64.29
  -3   4   4  275.37   56.69
  -3   4   4  150.98   72.69
   2  -4  -4    8.50   18.70
   2  -4  -4   20.20   15.80
   2  -4  -4   49.40   27.00
  -2   4   4   34.50   24.60
  -2   4   4   -5.60   31.60
  -2   4   4  -19.20   34.10
   1  -4  -4 1551.94  123.49
   1  -4  -4 1735.23  143.29
   1  -4  -4 1591.74  124.69
  -1   4   4 1961.70  230.48
  -1   4   4 1636.14  140.79
   0  -4  -4  389.46   36.70
   0  -4  -4  500.45   64.49
   0  -4  -4  351.36   54.19
   0   4   4  369.16   47.30
   0   4   4  480.45  101.59
  -1  -4  -4 7180.78  480.25
  -1  -4  -4 7387.86  495.65
  -1  -4  -4 7129.79  504.95
  -1  -4  -4 7563.64  505.05
   1   4   4 7274.47  494.45
   1   4   4 7284.17  532.75
  -2  -4  -4 2778.12  193.68
  -2  -4  -4 2795.52  212.48
  -2  -4  -4 2826.22  201.78
  -2  -4  -4 3029.80  216.08
  -2  -4  -4 2840.22  199.48
   2   4   4 2524.45  226.68
  -3  -4  -4   16.60   10.10
  -3  -4  -4    1.60    4.40
  -3  -4  -4   -8.00    6.20
  -3  -4  -4   -3.50   17.60
  -3  -4  -4   26.60   21.30
   3   4   4   12.30   23.90
  -4  -4  -4   41.70   12.90
  -4  -4  -4   33.10   15.60
  -4  -4  -4   40.10    8.50
  -4  -4  -4   27.20   30.10
  -4  -4  -4    1.60   20.50
  -4  -4  -4   46.10   15.00
   4   4   4  -15.80   30.80
  -5  -4  -4    0.90   24.40
  -5  -4  -4   16.00   12.00
  -5  -4  -4   11.40   12.10
  -5  -4  -4   -2.70   10.20
   5   4   4  -35.70   33.80
  -6  -4  -4  714.13   65.89
  -6  -4  -4  703.83   69.69
  -6  -4  -4  585.94  107.59
  -6  -4  -4  702.23   78.39
   6   4   4  654.13   88.39
   6   4   4  753.72  157.68
  -7  -4  -4   89.59   45.40
  -7  -4  -4   52.69   29.50
  -7  -4  -4   36.30   21.00
  -7  -4  -4   54.09   23.80
   7   4   4    8.10   22.40
  -8  -4  -4  167.28   67.79
   8   4   4  234.88   63.99
  -9  -4  -4 1057.09  169.18
   9   4   4  844.72  133.79
 -10  -4  -4 1524.05  211.78
  10   4   4 1414.46  205.18
 -11  -4  -4    5.40   53.89
  11   4   4   50.49   67.69
  -7   5   4  555.04  172.58
  -7   5   4  662.13  163.18
  -6   5   4  819.92  176.38
  -6   5   4 1456.75  259.87
   5  -5  -4  132.99   60.29
  -5   5   4   39.00   61.99
  -5   5   4  144.89   82.19
   4  -5  -4 2265.47  202.78
  -4   5   4 2175.28  304.97
  -4   5   4 2024.70  273.47
   3  -5  -4  186.98   56.89
   3  -5  -4   80.19   42.80
  -3   5   4   95.79   60.99
  -3   5   4  114.49   66.19
   2  -5  -4   91.69   36.10
   2  -5  -4   81.99   38.80
  -2   5   4  116.19   55.99
  -2   5   4  133.39   63.39
   1  -5  -4  834.32   78.29
   1  -5  -4  682.23   93.79
  -1   5   4  545.85  125.09
   0  -5  -4   95.79   30.10
   0   5   4   69.59   51.99
   0   5   4   73.19   21.40
  -1  -5  -4  110.49   35.10
  -1  -5  -4   31.90   18.20
   1   5   4  120.39   50.89
   1   5   4   65.89   19.70
  -2  -5  -4 1423.56  138.19
  -2  -5  -4 1718.83  125.39
   2   5   4 1608.24  157.28
   2   5   4 1576.64  156.18
  -3  -5  -4  164.68   31.70
  -3  -5  -4  135.99   27.20
  -3  -5  -4  179.08   45.60
   3   5   4  337.77   76.19
   3   5   4  215.18   59.19
  -4  -5  -4 5198.08  346.37
  -4  -5  -4 5084.89  357.06
  -4  -5  -4 5236.88  361.36
  -4  -5  -4 5046.10  388.46
  -5  -5  -4 3067.19  232.38
  -5  -5  -4 3219.08  228.08
   5   5   4 3113.29  305.37
  -6  -5  -4  158.18   26.60
  -6  -5  -4   81.29   46.10
  -6  -5  -4  133.39   34.10
  -6  -5  -4   97.89   26.60
   6   5   4   43.10   61.69
   6   5   4   63.69   32.50
  -7  -5  -4   85.99   24.50
  -7  -5  -4    8.90   42.70
  -7  -5  -4   51.09   24.60
   7   5   4  -12.90   19.10
  -8  -5  -4    4.10   31.90
  -8  -5  -4   29.80   23.50
   8   5   4   53.79   33.30
  -9  -5  -4  901.71  162.48
   9   5   4  640.54  118.19
 -10  -5  -4  171.38   80.29
  10   5   4   74.59   57.59
 -11  -5  -4   96.29   75.69
  11   5   4  213.58   99.29
  -6   6   4  219.28  121.59
  -6   6   4    1.50   82.89
  -5   6   4  -71.19   60.49
  -5   6   4   99.99   88.89
  -4   6   4  298.47   98.79
  -4   6   4  561.94  161.88
   3  -6  -4 1996.50  182.78
  -3   6   4 1403.26  226.88
  -3   6   4 2048.99  292.57
   2  -6  -4  311.77   68.29
  -2   6   4  211.28   86.59
  -1   6   4 2718.73  273.37
   0   6   4 1935.81  240.18
   1   6   4   19.30   32.50
  -2  -6  -4  326.77   54.89
  -2  -6  -4  299.17   64.79
   2   6   4  340.27   82.29
   2   6   4  427.86   86.49
  -3  -6  -4  730.63   78.99
  -3  -6  -4  671.33   51.09
  -3  -6  -4  725.43  105.29
  -3  -6  -4  680.83   75.39
   3   6   4  487.45   97.59
   3   6   4  694.13  117.89
  -4  -6  -4   42.10   36.50
  -4  -6  -4   67.09   22.20
  -4  -6  -4   15.10   16.40
   4   6   4   38.40   41.40
  -5  -6  -4  393.46   45.10
  -5  -6  -4  335.57   55.19
  -5  -6  -4  423.06   90.19
  -5  -6  -4  310.47   49.90
   5   6   4  483.55  116.69
  -6  -6  -4  626.24   83.89
  -6  -6  -4  718.43   81.29
  -6  -6  -4  697.43  131.29
   6   6   4  705.03  160.58
  -7  -6  -4  299.67   96.69
  -7  -6  -4  437.36   62.79
  -7  -6  -4  426.26   70.79
   7   6   4  430.36  124.49
   7   6   4  263.47   63.19
  -8  -6  -4 2687.73  231.08
  -8  -6  -4 2321.37  303.67
  -8  -6  -4 2865.11  225.28
   8   6   4 3249.87  249.88
  -9  -6  -4  279.47   85.59
   9   6   4  352.96   79.59
 -10  -6  -4   72.89   63.29
  10   6   4  -15.70   35.70
 -11  -6  -4  -81.59   44.10
  11   6   4 -110.89   45.00
  -5   7   4   -7.60   87.49
  -4   7   4  296.77  129.99
  -3   7   4   19.60   69.49
  -2   7   4  102.19   74.39
  -1   7   4  192.28   88.79
   0   7   4 2090.89  260.37
   1   7   4 1381.86  186.98
   1   7   4 1274.67  176.38
  -2  -7  -4  692.83   64.19
  -2  -7  -4  778.52  114.09
   2   7   4  642.84  126.19
   2   7   4  607.94  120.39
  -3  -7  -4 1837.82  132.89
  -3  -7  -4 1987.80  150.48
  -3  -7  -4 1364.96  180.28
   3   7   4 1917.41  225.98
   3   7   4 1890.41  186.08
  -4  -7  -4   44.00   23.10
  -4  -7  -4   50.49   21.40
  -4  -7  -4   48.20   33.70
   4   7   4   51.79   45.30
  -5  -7  -4  107.89   53.89
  -5  -7  -4   66.19   25.20
  -5  -7  -4   44.70   23.00
   5   7   4    1.10   44.60
  -6  -7  -4  312.47   57.09
  -6  -7  -4  386.46   65.39
   6   7   4  347.87  113.19
  -7  -7  -4   25.30   36.00
  -7  -7  -4   25.00   22.40
  -7  -7  -4   25.20   22.70
   7   7   4    8.90   55.39
  -8  -7  -4   63.39   36.50
  -8  -7  -4   10.80   24.00
  -8  -7  -4  -47.40   35.20
   8   7   4  108.09   44.20
   8   7   4   92.69   75.99
  -9  -7  -4  733.73  113.39
  -9  -7  -4 1173.08  204.48
   9   7   4  766.22  123.99
 -10  -7  -4   17.00   50.19
  10   7   4   42.30   42.20
  11   7   4 2005.30  257.37
   4  -8  -4  731.53  126.39
  -4   8   4  578.44  178.88
   3  -8  -4  459.25   91.99
  -3   8   4  442.46  140.99
  -2   8   4  221.98   97.39
  -1   8   4  651.73  155.48
   0   8   4  104.29   61.89
  -1  -8  -4  355.16   59.59
   1   8   4  383.86  101.59
   1   8   4  269.77   86.89
  -2  -8  -4  146.59   34.70
   2   8   4   74.49   54.49
   2   8   4   71.69   56.09
  -3  -8  -4  833.42  132.19
  -3  -8  -4  882.41  100.39
   3   8   4 1073.59  156.68
   3   8   4  871.91  154.48
  -4  -8  -4 3741.63  323.87
  -4  -8  -4 3751.22  286.27
  -4  -8  -4 3888.31  284.77
   4   8   4 3762.32  346.57
  -5  -8  -4   25.80   26.30
  -5  -8  -4   22.70   32.80
  -5  -8  -4   27.70   20.20
   5   8   4   22.10   48.50
  -6  -8  -4 1979.60  170.28
  -6  -8  -4 1887.11  163.48
  -6  -8  -4 1846.02  231.88
   6   8   4 2080.29  290.87
  -7  -8  -4  248.78   92.99
  -7  -8  -4  327.17   62.29
  -7  -8  -4  328.97   64.79
   7   8   4  249.38  104.69
  -8  -8  -4    5.60   21.90
  -8  -8  -4   57.99   31.90
  -8  -8  -4   47.20   53.09
   8   8   4  -61.49   67.29
   8   8   4  -27.00   27.10
  -9  -8  -4  405.66  128.99
  -9  -8  -4  496.05   94.39
   9   8   4  293.87   83.79
 -10  -8  -4   -0.80   66.09
  10   8   4   49.00   46.00
   3  -9  -4   40.00   44.00
  -3   9   4  110.89   87.09
   2  -9  -4 1196.38  164.28
  -2   9   4 1178.68  229.58
   1  -9  -4 1742.63  170.48
  -1   9   4 1904.51  275.87
   0  -9  -4  -19.30   22.90
   0   9   4   45.70   52.39
   0   9   4   49.90   45.00
  -1  -9  -4  570.84   83.49
   1   9   4  360.46  113.59
   1   9   4  434.86  110.69
   2   9   4  -11.10   39.50
   2   9   4   -2.20   29.70
   3   9   4   19.00   39.30
   3   9   4   44.20   47.40
  -4  -9  -4  188.58   63.29
  -4  -9  -4   79.19   31.10
   4   9   4   10.50   46.70
  -5  -9  -4   26.80   45.30
  -5  -9  -4   37.80   26.90
  -5  -9  -4  119.19   39.30
   5   9   4   93.29   60.79
  -6  -9  -4  136.59   42.00
  -6  -9  -4  141.19   64.39
  -6  -9  -4   71.39   36.00
   6   9   4   49.80   79.19
  -7  -9  -4 1463.45  165.78
  -7  -9  -4 1449.26  162.58
   7   9   4 1931.71  301.57
  -8  -9  -4  585.04  144.79
  -8  -9  -4  676.33  107.79
  -8  -9  -4  583.54   99.69
   8   9   4  663.53  180.18
  -9  -9  -4  651.53  162.88
  -9  -9  -4 1211.48  151.68
   9   9   4  859.61  142.39
   9   9   4 1116.39  236.48
 -10  -9  -4  490.45  139.69
  10   9   4  383.46  100.49
   2 -10  -4  528.15  109.49
  -2  10   4  419.06  131.79
   1 -10  -4   17.50   36.30
  -1  10   4   25.80   79.59
  -1  10   4  -14.10   52.89
   0 -10  -4   51.09   39.20
   0  10   4   -7.10   51.19
   0  10   4    5.90   51.09
   1  10   4  538.65  124.59
   1  10   4  497.15  144.39
   2  10   4 2281.07  298.47
   2  10   4 1981.50  252.87
   3  10   4  509.15  132.79
   3  10   4  226.68   80.39
  -4 -10  -4  423.36   74.19
   4  10   4  401.16  131.59
  -5 -10  -4   26.20   53.59
  -5 -10  -4    2.10   21.60
  -5 -10  -4   -6.30   22.00
   5  10   4  -37.60   46.60
  -6 -10  -4  148.89   78.99
  -6 -10  -4   88.99   41.40
   6  10   4  176.88  100.39
  -7 -10  -4   94.99   42.60
  -7 -10  -4  -18.90   32.30
   7  10   4  146.09  103.49
  -8 -10  -4   57.19   39.00
  -8 -10  -4  -36.90   47.60
   8  10   4  150.88  103.29
  -9 -10  -4   -2.30   38.10
  -9 -10  -4  119.69   87.59
   9  10   4   71.09   92.79
   1 -11  -4   11.70   51.89
  -1  11   4  296.87  132.89
   0  11   4  595.94  170.78
   1  11   4  790.52  184.58
   1  11   4  681.73  147.49
   2  11   4   23.90   78.29
   2  11   4   64.09   65.59
   3  11   4   11.20   67.59
  -4 -11  -4   41.60   31.90
   4  11   4   34.50   80.69
  -5 -11  -4 2415.56  203.48
   5  11   4 1795.52  306.47
  -6 -11  -4 1519.25  174.98
   6  11   4 1300.77  266.77
  -7 -11  -4  120.69   74.69
  -7 -11  -4  243.18   70.29
   7  11   4   88.99   99.49
  -8 -11  -4  317.27  119.79
  -8 -11  -4  141.19   61.99
   8  11   4  474.95  181.38
  -9 -11  -4   59.69   50.69
  -9 -11  -4   22.80   71.59
   2  12   4   73.09  100.49
   3  12   4   47.70   88.19
   4  12   4  461.05  159.98
  -5 -12  -4  145.29   52.59
   5  12   4  -15.00   89.29
  -6 -12  -4   27.40   34.30
   6  12   4  132.09  122.49
  -7 -12  -4   36.50   38.20
   7  12   4   56.89  110.19
  -6 -11   5   50.39   38.70
  -6 -11   5  -46.60   49.40
  -5 -11   5  583.44  134.39
  -5 -11   5  819.42  137.79
  -4 -11   5 1398.46  216.08
   3  11  -5   43.00   68.29
   3  11  -5   97.59   96.09
  -3 -11   5   64.89   53.29
   2  11  -5   37.40   82.79
   2  11  -5   95.29   86.79
  -2 -11   5   91.19   64.09
   1  11  -5  339.37  132.59
   1  11  -5  728.23  187.98
   8  10  -5  451.85  119.69
   7  10  -5  -25.20   47.10
  -7 -10   5   25.60   52.79
  -6 -10   5 1265.87  202.78
  -6 -10   5 1345.17  176.58
  -5 -10   5  841.52  155.88
  -5 -10   5 1070.29  150.98
   4  10  -5   50.29   49.99
  -4 -10   5   64.49   51.29
   3  10  -5  -49.80   51.49
   3  10  -5   62.29   60.19
  -3 -10   5   53.79   56.29
   2  10  -5  320.97  110.89
   2  10  -5  289.37  120.79
  -2 -10   5  383.36   93.99
   1  10  -5 2203.68  305.77
   1  10  -5 2352.86  322.57
  -1 -10   5 1519.65  222.28
   0  10  -5   81.09   86.79
   0  10  -5  126.79  102.39
   0 -10   5   96.79   68.79
  -1  10  -5  257.97  129.29
   1 -10   5  301.37   92.59
   8   9  -5  432.36  105.29
   7   9  -5  145.09   65.69
  -7  -9   5  119.39   71.09
  -6  -9   5  255.97   91.19
  -6  -9   5  234.18   69.19
  -5  -9   5  143.59   49.20
  -5  -9   5  148.69   66.39
   4   9  -5  318.57   92.09
  -4  -9   5  133.29   56.59
  -4  -9   5  326.87   83.99
   3   9  -5 1218.28  202.98
   3   9  -5 1054.19  174.28
  -3  -9   5 1312.57  179.28
   2   9  -5 1153.58  194.08
   2   9  -5 1259.77  221.48
  -2  -9   5 1307.07  184.28
  -2  -9   5 1579.64  200.38
   1   9  -5  120.69   75.79
   1   9  -5  231.78  103.69
  -1  -9   5   48.00   45.60
   0   9  -5  128.79   95.09
   0  -9   5   11.20   43.10
  -1   9  -5   70.69   69.79
   1  -9   5  126.19   58.49
   2  -9   5 1214.08  178.98
   3  -9   5  418.46  106.39
   9   8  -5  195.68   81.39
   8   8  -5  845.62  142.79
   7   8  -5  891.61  145.99
  -7  -8   5 1019.90  175.78
   6   8  -5  228.68   72.39
  -6  -8   5  260.57   84.89
  -6  -8   5  284.57   74.59
   5   8  -5  586.34  114.09
  -5  -8   5  491.55  108.69
  -5  -8   5  574.24   98.49
   4   8  -5   51.69   49.99
  -4  -8   5   10.80   33.60
  -4  -8   5  102.09   49.10
  -4  -8   5  114.59   43.90
   3   8  -5 1108.69  178.98
   3   8  -5 1049.00  158.48
  -3  -8   5  977.60  151.58
  -3  -8   5  743.13  125.89
   2   8  -5  -15.10   40.80
   2   8  -5    7.20   42.30
  -2  -8   5   26.00   40.90
  -2  -8   5   35.50   36.80
   1   8  -5  921.81  164.58
   1   8  -5  412.76  115.79
  -1  -8   5  582.54  111.69
   0   8  -5  205.18   89.79
   0  -8   5  220.18   75.69
  -1   8  -5 2607.54  330.77
   1  -8   5 1960.30  239.98
   2  -8   5  326.67   87.59
   3  -8   5   75.09   49.80
   4  -8   5    6.40   42.10
   9   7  -5   22.20   43.70
   8   7  -5  110.39   55.99
   7   7  -5  959.40  137.89
  -7  -7   5  730.13  148.49
   6   7  -5 1703.03  194.88
   6   7  -5 1555.94  192.78
  -6  -7   5 1289.67  191.08
   5   7  -5  345.47   83.49
  -5  -7   5  244.58   60.69
  -5  -7   5  211.68   69.39
   4   7  -5 1963.20  177.48
  -4  -7   5 1924.51  178.08
  -4  -7   5 1227.58  160.18
  -4  -7   5 1921.61  184.68
   3   7  -5  386.66   96.29
   3   7  -5  325.27   82.09
  -3  -7   5  610.74  111.29
  -3  -7   5  399.26   80.79
   2   7  -5 1053.29  161.38
   2   7  -5 1244.58  178.78
  -2  -7   5  855.31  135.39
  -2  -7   5  921.91  132.39
   1   7  -5  449.46  105.69
   1   7  -5  394.76  101.29
  -1  -7   5  342.57   79.29
  -1  -7   5  418.46   89.89
   0   7  -5  803.32  163.28
   0  -7   5 1028.10  142.39
  -1   7  -5  658.73  147.89
   1  -7   5  420.86   93.89
  -2   7  -5  246.68  105.19
   2  -7   5  323.97   82.39
   3  -7   5    8.30   34.60
  -4   7  -5  713.83  170.58
   4  -7   5  866.31  142.29
  -5   7  -5  720.13  189.78
   5  -7   5  409.46  102.39
   5  -7   5  479.45  152.08
  10   6  -5  -65.19   53.19
 -10  -6   5   21.30   74.99
   9   6  -5  177.18   76.59
   8   6  -5   39.30   41.20
   7   6  -5  353.86   80.79
  -7  -6   5  364.86   89.09
   6   6  -5  174.38   56.29
  -6  -6   5  296.07   87.99
   5   6  -5  248.88   65.59
  -5  -6   5  243.08   74.19
   4   6  -5  151.58   54.69
  -4  -6   5  204.58   69.29
  -4  -6   5  172.48   48.30
   3   6  -5 2920.61  259.67
   3   6  -5 2726.53  243.28
  -3  -6   5 3640.94  269.47
  -3  -6   5 2905.61  253.67
  -3  -6   5 2975.90  236.68
   2   6  -5   45.60   34.60
   2   6  -5   49.30   48.40
  -2  -6   5   25.70   27.90
  -2  -6   5   73.99   41.80
   1   6  -5 1331.37  189.68
  -1  -6   5 1521.05  184.18
  -1  -6   5 1847.22  161.78
   0   6  -5  512.55  112.49
   0  -6   5  480.95   87.79
  -1   6  -5  847.22  145.79
   1  -6   5  482.75   93.89
  -2   6  -5  835.52   89.89
  -2   6  -5  583.54  134.39
  -2   6  -5  765.82  134.59
   2  -6   5  656.13  110.39
  -3   6  -5   68.99   61.19
   3  -6   5   71.49   65.29
   3  -6   5   72.29   41.90
  -4   6  -5  729.43  162.68
   4  -6   5  680.63  119.69
   4  -6   5  963.00  179.68
  -5   6  -5   31.80   60.89
   5  -6   5  -11.90   26.10
   5  -6   5  -34.40   54.79
  -6   6  -5  261.37  122.09
   6  -6   5  156.58   66.39
   6  -6   5  204.38  112.89
 -10  -5   5  223.58  120.99
   9   5  -5 1359.26  185.58
  -9  -5   5  843.22  193.48
   8   5  -5 2634.04  240.88
   7   5  -5   53.19   35.20
  -7  -5   5   41.60   45.50
   6   5  -5  604.24   98.29
  -6  -5   5  812.32  133.19
   5   5  -5  203.48   51.29
  -5  -5   5  173.18   59.49
   4   5  -5  567.84   86.59
  -4  -5   5  519.75   99.69
  -4  -5   5  297.57   61.69
   3   5  -5  943.31  125.79
   3   5  -5 1042.20  100.99
  -3  -5   5  860.71  128.69
  -3  -5   5  848.62  122.99
  -3  -5   5  911.41  109.89
   2   5  -5  133.59   44.30
   2   5  -5  118.89   46.40
  -2  -5   5  123.89   50.79
  -2  -5   5  239.58   56.39
   1   5  -5   39.40   23.60
   1   5  -5   -9.30   32.60
  -1  -5   5   15.00   23.50
  -1  -5   5   12.00   19.00
   0   5  -5 2541.25  194.28
   0   5  -5 2577.84  239.78
   0  -5   5 2384.06  215.38
  -1   5  -5 1385.06  120.09
  -1   5  -5 1472.05  103.49
  -1   5  -5 1308.67  182.58
   1  -5   5 1418.86  165.08
  -2   5  -5  778.72   77.49
  -2   5  -5  945.81  142.99
  -2   5  -5  817.02   77.99
  -2   5  -5  817.52  151.58
   2  -5   5  874.41  119.49
  -3   5  -5 1483.25  133.39
  -3   5  -5 1483.55  200.08
   3  -5   5 1176.98  188.88
   3  -5   5 1033.40  145.39
  -4   5  -5  801.92  124.29
  -4   5  -5  400.86  119.39
   4  -5   5  520.25  127.89
   4  -5   5  479.15   96.69
  -5   5  -5 1276.17  212.48
   5  -5   5  949.01  171.78
   5  -5   5  868.41  137.69
  -6   5  -5   91.79   81.79
   6  -5   5  157.68   86.39
   6  -5   5  142.79   57.99
  -7   5  -5  352.76  152.18
   7  -5   5  463.65  129.39
  10   4  -5  328.97  130.59
 -10  -4   5  380.06  147.49
   9   4  -5  -10.50   49.99
  -9  -4   5   44.20   77.29
   8   4  -5   56.09   42.60
  -8  -4   5   66.99   60.79
   7   4  -5  169.38   53.19
  -7  -4   5  154.08   50.39
   6   4  -5  210.98   51.69
  -6  -4   5  180.58   62.79
   5   4  -5 6420.76  423.16
  -5  -4   5 5786.22  453.45
  -5  -4   5 5132.59  444.66
   4   4  -5 1393.76  133.39
  -4  -4   5 1704.63  197.78
   3   4  -5  458.65   71.49
  -3  -4   5  751.82  104.39
  -3  -4   5  516.85   90.29
   2   4  -5  767.72  100.49
   2   4  -5  740.13   84.09
   2   4  -5  729.73   87.99
  -2  -4   5  461.65   90.69
  -2  -4   5  614.54   97.79
   1   4  -5  505.95   87.19
   1   4  -5  473.05   63.29
  -1  -4   5  380.16   68.99
  -1  -4   5  440.06   82.59
   0   4  -5 2342.77  204.08
   0   4  -5 1965.90  163.08
   0  -4   5 2175.28  188.78
  -1   4  -5   41.20   16.10
  -1   4  -5   33.40   26.30
  -1   4  -5   95.39   35.00
  -1   4  -5   75.79   43.90
   1  -4   5   40.30   27.70
  -2   4  -5 1396.56  148.89
  -2   4  -5 1632.14  200.68
  -2   4  -5 1111.59   96.99
  -2   4  -5 1146.69  146.59
  -2   4  -5  970.50   89.49
   2  -4   5  881.71  120.59
   2  -4   5 1336.77  176.08
  -3   4  -5  637.94  116.89
  -3   4  -5  574.04   56.99
  -3   4  -5  750.62  102.39
  -3   4  -5  655.13   96.99
   3  -4   5  601.54  119.29
   3  -4   5  647.34   98.99
  -4   4  -5 1827.92  179.58
  -4   4  -5 2205.68  252.27
   4  -4   5 1920.61  179.48
   4  -4   5 1816.82  231.08
  -5   4  -5  -21.60   25.50
  -5   4  -5   12.40   53.69
   5  -4   5  -33.00   38.40
  -6   4  -5  760.92  125.39
  -6   4  -5  572.04  147.79
   6  -4   5  359.96  106.99
  -7   4  -5  405.16  101.69
  -7   4  -5  458.85  149.88
   7  -4   5  266.27  109.69
  -8   4  -5  754.52  201.48
  -8   4  -5  688.93  165.38
   8  -4   5  766.22  180.18
  10   3  -5 1680.83  248.08
 -10  -3   5 1514.65  291.77
   9   3  -5  294.97  103.69
  -9  -3   5  375.16  139.39
   8   3  -5   51.89   44.80
  -8  -3   5   27.00   56.49
   7   3  -5   16.90   34.50
  -7  -3   5  239.38   91.79
   6   3  -5   28.80   24.20
  -6  -3   5   48.20   32.40
  -6  -3   5  129.29   64.79
   5   3  -5  190.28   43.40
  -5  -3   5  183.88   57.79
  -5  -3   5  279.47   74.29
   4   3  -5  356.16   55.19
  -4  -3   5  280.47   72.39
  -4  -3   5  196.58   58.49
  -3  -3   5   46.70   31.10
   2   3  -5 4499.15  303.37
   2   3  -5 4559.94  317.17
   2   3  -5 4148.69  313.57
  -2  -3   5 4081.19  330.47
  -2  -3   5 4307.97  334.27
   1   3  -5 5109.69  358.56
   1   3  -5 4631.64  371.66
   1   3  -5 5053.29  370.36
  -1  -3   5 5173.68  373.16
  -1  -3   5 5244.58  383.06
   0   3  -5   40.20   23.50
   0   3  -5   77.79   23.50
   0   3  -5   83.09   37.00
   0  -3   5   22.10   29.70
  -1   3  -5 1037.30  111.99
  -1   3  -5  865.01   88.29
  -1   3  -5  879.01   79.39
  -1   3  -5 1146.69  141.99
   1  -3   5  926.01  116.39
  -2   3  -5  385.16   70.29
  -2   3  -5  351.06   60.29
  -2   3  -5  412.86   89.49
  -2   3  -5  268.47   36.90
   2  -3   5  262.27   56.29
   2  -3   5  307.27   76.89
  -3   3  -5 1436.16  172.88
  -3   3  -5 1439.46  129.79
  -3   3  -5 1288.17   98.49
   3  -3   5 1339.97  176.38
   3  -3   5 1274.77  126.89
  -4   3  -5 1237.08  168.48
  -4   3  -5  981.60  129.79
   4  -3   5 1109.69  160.28
  -5   3  -5  566.94   97.49
  -5   3  -5  500.05  113.69
   5  -3   5  382.26   95.49
  -6   3  -5    3.20   51.59
  -6   3  -5   54.79   42.10
   6  -3   5   45.40   53.89
  -7   3  -5 1025.80  203.28
  -7   3  -5  918.81  142.09
   7  -3   5  926.41  169.88
  -8   3  -5  280.67   84.69
  -8   3  -5  233.48  112.09
   8  -3   5  128.99   81.39
  10   2  -5   79.79   86.79
   9   2  -5  928.21  168.18
  -9  -2   5  656.33  176.68
   8   2  -5    1.50   41.90
  -8  -2   5   34.00   58.49
   7   2  -5 2844.82  237.28
  -7  -2   5 2726.83  338.57
   6   2  -5 2338.67  182.28
  -6  -2   5 1654.03  243.38
   5   2  -5   45.00   23.00
  -5  -2   5   36.30   38.10
  -5  -2   5   25.50   23.60
   4   2  -5  140.09   31.30
  -4  -2   5   68.79   36.50
  -4  -2   5  113.19   47.50
  -4  -2   5  185.38   52.59
  -3  -2   5  389.76   77.79
  -3  -2   5  211.78   54.89
   2   2  -5    4.50   15.00
  -2  -2   5   35.60   23.00
  -2  -2   5   29.40   27.20
   1   2  -5  298.27   59.39
   1   2  -5  249.38   44.80
   1   2  -5  275.77   53.99
   1   2  -5  260.87   45.60
  -1  -2   5  222.98   54.89
  -1  -2   5  290.27   58.39
   0   2  -5  421.56   60.19
   0   2  -5  368.06   64.29
   0   2  -5  416.56   54.49
   0   2  -5  412.86   61.89
   0  -2   5  469.65   79.39
  -1   2  -5 1507.35  124.09
  -1   2  -5 1365.86  140.69
  -1   2  -5 1400.26  120.89
  -1   2  -5 1516.95  118.99
  -1   2  -5 1559.54  116.99
   1  -2   5 1424.06  168.38
   1  -2   5 1492.65  135.39
  -2   2  -5 8294.27  551.94
  -2   2  -5 8191.78  537.15
  -2   2  -5 8204.48  553.44
  -2   2  -5 7860.71  560.94
  -2   2  -5 7352.66  586.54
   2  -2   5 7789.42  560.94
   2  -2   5 8266.07  583.94
  -3   2  -5 1315.87  155.78
  -3   2  -5 1362.96  202.58
  -3   2  -5 1195.88  112.59
  -3   2  -5 1209.08   87.79
   3  -2   5 1133.19  147.19
  -4   2  -5  531.85   78.39
  -4   2  -5  403.36   86.89
  -4   2  -5  361.36   34.80
   4  -2   5  483.75   90.99
  -5   2  -5  296.07   62.89
  -5   2  -5  323.27   87.49
   5  -2   5  165.78   61.29
  -6   2  -5  653.33  130.59
  -6   2  -5  616.44  101.49
   6  -2   5  438.56  106.59
  -7   2  -5  940.41  138.39
  -7   2  -5  813.72  170.38
   7  -2   5  898.81  161.38
  -8   2  -5   49.60   42.60
  -8   2  -5   90.39   82.59
   8  -2   5   42.30   62.49
  -9   2  -5  147.69   64.89
  -9   2  -5  118.49   94.59
   9  -2   5   78.19   78.99
   9   1  -5  -40.50   57.39
  -9  -1   5  278.57  126.79
   8   1  -5  221.48   84.69
  -8  -1   5  200.28  113.89
   7   1  -5   86.29   53.59
  -7  -1   5  229.08  101.89
   6   1  -5  956.60  117.39
  -6  -1   5 1047.90  182.28
   5   1  -5 1029.10   97.39
  -5  -1   5 1073.49  169.38
   4   1  -5 2849.51  202.78
  -4  -1   5 2517.85  226.28
  -4  -1   5 2816.22  216.48
  -4  -1   5 2845.62  252.87
   3   1  -5 7162.88  484.35
  -3  -1   5 7351.46  514.85
  -3  -1   5 7701.03  536.15
  -3  -1   5 6653.03  512.75
   2   1  -5  699.93   82.39
   2   1  -5  671.03  103.59
  -2  -1   5  526.15   86.59
  -2  -1   5  842.72  111.59
  -2  -1   5  735.03  110.59
   1   1  -5  357.76   40.70
   1   1  -5  293.07   37.50
   1   1  -5  336.07   53.59
  -1  -1   5  331.47   61.69
  -1  -1   5  267.87   62.59
   0   1  -5  437.56   58.09
   0   1  -5  445.56   58.39
   0   1  -5  476.15   60.09
   0  -1   5  353.36   67.29
  -1   1  -5 1166.68   96.49
  -1   1  -5 1184.78   91.39
  -1   1  -5 1294.57  101.09
  -1   1  -5 1195.38   96.99
  -1   1  -5 1214.48  119.09
  -2   1  -5  246.38   62.09
  -2   1  -5  329.77   41.90
  -2   1  -5  333.97   44.30
  -2   1  -5  337.07   44.20
  -2   1  -5  320.47   57.39
   2  -1   5  245.78   58.99
  -3   1  -5 1143.29   95.99
  -3   1  -5 1344.97  147.59
  -3   1  -5 1141.59  149.49
  -3   1  -5 1119.59   83.79
  -3   1  -5 1063.79   97.89
  -3   1  -5 1123.59   80.09
   3  -1   5  956.20  127.89
  -4   1  -5    2.30    5.10
  -4   1  -5   38.90   24.30
  -4   1  -5    2.00   32.00
   4  -1   5   48.80   34.70
  -5   1  -5 4752.42  353.06
  -5   1  -5 5146.49  399.06
   5  -1   5 4391.26  371.66
  -6   1  -5 2184.08  193.68
  -6   1  -5 2474.45  245.58
   6  -1   5 1964.10  233.98
  -7   1  -5  -28.40   23.80
  -7   1  -5  -27.80   46.90
   7  -1   5   52.99   50.89
  -8   1  -5   21.60   53.79
  -8   1  -5   23.70   36.40
   8  -1   5  -39.20   46.50
  -9   1  -5   37.70   83.79
  -9   1  -5  263.67   85.29
   9  -1   5  277.47  100.49
   9   0  -5  658.13  149.09
   8   0  -5  708.53  146.89
  -8   0   5  589.04  172.78
   7   0  -5   15.10   34.20
   7   0  -5  110.89   59.19
  -7   0   5  170.58   95.09
   6   0  -5  -12.90   25.90
  -6   0   5   42.70   55.19
   5   0  -5  690.53  101.39
   5   0  -5  719.53   91.29
  -5   0   5  651.03  141.39
   4   0  -5  178.88   38.90
   4   0  -5  236.28   40.10
  -4   0   5  157.48   64.09
   3   0  -5  587.14   52.09
   3   0  -5  646.34   73.99
  -3   0   5  520.45  104.79
  -3   0   5  621.94   76.39
  -3   0   5  581.04   85.09
   2   0  -5 3890.71  288.97
   2   0  -5 3965.80  292.47
   2   0  -5 4092.79  271.47
  -2   0   5 3908.01  302.47
  -2   0   5 4303.37  297.77
  -2   0   5 4089.39  326.97
   1   0  -5  162.88   33.40
   1   0  -5   89.99   27.30
   1   0  -5  190.28   32.80
   1   0  -5  146.89   33.10
  -1   0   5  142.29   39.30
   0   0  -5 9629.84  646.44
   0   0  -5 9713.83  643.54
   0   0  -5 9343.96  660.93
   0   0  -5 8501.45  677.73
   0   0  -5 9843.32  654.13
   0   0  -5 9890.81  643.84
   0   0  -5 9999.00  644.14
  -1   0  -5 1257.87   92.89
  -1   0  -5 1331.17   92.39
  -1   0  -5  854.21  113.79
  -1   0  -5 1194.98  111.79
  -1   0  -5 1358.66  115.09
  -1   0  -5 1307.17  116.29
  -1   0  -5 1384.16  103.99
  -2   0  -5   22.90   14.60
  -2   0  -5   22.50   19.90
  -2   0  -5   13.90    9.30
  -2   0  -5   16.50    8.30
  -2   0  -5   16.30   19.20
  -2   0  -5   47.10   28.40
  -2   0  -5   55.59   21.70
  -3   0  -5  276.67   66.89
  -3   0  -5  303.77   41.90
  -3   0  -5  487.05   52.39
  -3   0  -5  303.97   28.30
  -3   0  -5  361.86   43.60
  -3   0  -5  210.48   57.09
  -3   0  -5  330.37   40.00
  -4   0  -5    4.90    8.80
  -4   0  -5   12.50   29.60
  -4   0  -5   18.60    4.60
  -4   0  -5   38.30   20.70
  -4   0  -5   -1.10   10.00
   4   0   5   31.20   28.20
  -5   0  -5  763.02  133.99
  -5   0  -5  759.22   92.89
  -5   0  -5  455.35   86.39
  -5   0  -5  655.73   52.19
   5   0   5  857.61  116.29
   5   0   5  589.74  101.59
  -6   0  -5  102.09   26.90
  -6   0  -5   79.69   32.90
  -6   0  -5  217.08   81.79
   6   0   5   99.79   51.09
   6   0   5   17.00   38.70
  -7   0  -5  334.87  108.69
  -7   0  -5  475.85   84.59
   7   0   5  275.07   77.39
   7   0   5  332.07   85.19
  -8   0  -5  355.46  119.19
  -8   0  -5  584.84  102.79
   8   0   5  572.44  120.39
  -9   0  -5 1713.73  205.18
  -9   0  -5 1800.12  275.17
   9   0   5 1222.08  205.68
 -10   0  -5   19.50   46.20
 -10   0  -5   16.20   77.59
  10   0   5  193.58   94.79
   9  -1  -5  101.09   84.99
   9  -1  -5   96.29   54.39
   8  -1  -5  682.43  116.49
   8  -1  -5  766.92  140.39
   7  -1  -5 1504.25  200.48
   7  -1  -5 1777.72  167.78
  -7   1   5 1761.12  261.37
   6  -1  -5   51.09   42.00
   6  -1  -5   75.79   33.30
  -6   1   5   96.59   71.69
   5  -1  -5 1925.41  164.68
  -5   1   5 1853.91  257.87
   4  -1  -5   46.70   23.50
  -4   1   5   27.20   36.10
   3  -1  -5  162.38   34.60
  -3   1   5  294.37   81.99
  -3   1   5  161.08   43.60
   2  -1  -5  559.24   62.69
  -2   1   5  407.76   96.39
   1  -1  -5  849.61   72.29
   1  -1  -5  694.53   66.49
   1  -1  -5  727.13   88.69
   1  -1  -5  727.03   65.29
   1  -1  -5  655.23   55.99
  -1   1   5  855.31  128.29
  -1   1   5  768.52   70.39
   0  -1  -5  425.76   47.20
   0  -1  -5  437.06   58.59
   0  -1  -5  453.75   57.39
   0  -1  -5  460.25   38.80
   0  -1  -5  415.46   39.60
   0  -1  -5  508.65   76.29
  -1  -1  -5 3017.10  275.97
  -1  -1  -5 3595.34  267.17
  -1  -1  -5 3530.15  238.68
  -1  -1  -5 3633.44  263.67
  -1  -1  -5 3835.22  271.07
  -1  -1  -5 3789.62  253.57
  -1  -1  -5 3714.63  238.68
  -2  -1  -5 1224.78   92.49
  -2  -1  -5 1210.38   84.49
  -2  -1  -5 1205.08   98.09
  -2  -1  -5 1189.78   83.19
  -2  -1  -5 1150.28  103.19
  -3  -1  -5 5249.27  366.76
  -3  -1  -5 4997.20  350.96
  -3  -1  -5 5361.16  352.76
  -3  -1  -5 5228.18  349.87
  -3  -1  -5 5122.79  392.66
  -3  -1  -5 4967.30  344.97
  -4  -1  -5 4706.43  307.77
  -4  -1  -5 4304.87  313.87
  -4  -1  -5 4380.16  296.07
  -4  -1  -5 4431.36  299.17
  -4  -1  -5 4604.04  317.27
  -4  -1  -5 4373.06  362.36
   4   1   5 4401.26  328.07
  -5  -1  -5  244.58   48.10
  -5  -1  -5  313.27   88.99
  -5  -1  -5  212.58   49.00
  -5  -1  -5  309.17   27.50
  -5  -1  -5  293.47   59.79
   5   1   5  233.18   54.19
  -6  -1  -5  175.18   46.30
  -6  -1  -5  167.88   78.29
   6   1   5  133.39   47.90
  -7  -1  -5  -25.60   36.50
  -7  -1  -5   -6.40   18.40
   7   1   5   15.70   32.40
  -8  -1  -5  178.58   88.99
  -8  -1  -5  234.38   64.59
   8   1   5  274.87   82.19
   8   1   5  158.08   71.19
  -9  -1  -5  195.78  108.29
  -9  -1  -5   14.10   33.90
   9   1   5  101.99   59.19
   9   1   5  108.49   67.59
 -10  -1  -5  314.27   90.19
 -10  -1  -5  244.38  126.49
  10   1   5  351.16  110.79
   8  -2  -5  182.48   63.29
   8  -2  -5  116.39   75.69
   7  -2  -5  124.09   52.89
   7  -2  -5  112.39   58.19
  -7   2   5  141.89   69.59
   6  -2  -5  232.98   56.79
   6  -2  -5  318.47   77.59
  -6   2   5  273.37   89.49
   5  -2  -5  933.21  128.89
   5  -2  -5 1027.80  119.79
  -5   2   5 1022.00  169.28
   4  -2  -5 4486.75  342.97
   4  -2  -5 4785.92  335.47
  -4   2   5 4344.87  374.66
   3  -2  -5  842.12  124.09
   3  -2  -5  804.42   77.99
  -3   2   5  627.24  117.79
   2  -2  -5 2781.62  204.38
   2  -2  -5 2922.01  223.48
   2  -2  -5 2596.84  211.48
  -2   2   5 2946.41  245.28
   1  -2  -5 2009.90  156.48
   1  -2  -5 1956.80  161.58
   1  -2  -5 2184.38  153.78
   1  -2  -5 1969.30  166.58
   1  -2  -5 2005.60  156.18
  -1   2   5 2258.07  185.98
   0  -2  -5  244.58   33.30
   0  -2  -5  210.78   32.70
   0  -2  -5  257.37   35.80
   0  -2  -5  218.18   34.00
   0  -2  -5  288.87   47.20
   0   2   5  313.17   59.39
  -1  -2  -5  134.99   30.50
  -1  -2  -5   87.29   30.40
  -1  -2  -5   79.99   25.30
  -1  -2  -5  137.09   25.50
  -1  -2  -5   85.59   16.10
  -1  -2  -5   95.49   17.20
  -1  -2  -5   92.79   17.70
  -2  -2  -5  204.68   30.30
  -2  -2  -5  285.57   38.20
  -2  -2  -5  305.87   46.30
  -2  -2  -5  246.98   32.20
  -2  -2  -5  232.38   30.40
  -2  -2  -5  190.78   26.10
  -3  -2  -5   38.60   12.30
  -3  -2  -5   50.89   18.80
  -3  -2  -5   85.99   21.70
  -3  -2  -5   90.09   20.00
  -3  -2  -5   43.40   11.50
  -4  -2  -5 1286.27   92.19
  -4  -2  -5 1360.36  107.89
  -4  -2  -5 1227.08  105.49
  -4  -2  -5 1184.88  108.79
  -4  -2  -5 1224.98   95.59
  -4  -2  -5 1936.61  203.68
  -5  -2  -5 3393.26  249.88
  -5  -2  -5 3324.07  227.18
  -5  -2  -5 3330.47  220.78
  -5  -2  -5 3076.29  244.98
  -5  -2  -5 3145.59  244.98
  -5  -2  -5 3648.93  304.47
   5   2   5 2971.00  248.68
  -6  -2  -5  397.16   68.99
  -6  -2  -5  345.07   44.80
  -6  -2  -5  563.84  122.19
  -6  -2  -5  399.36   72.39
   6   2   5  515.95   84.69
  -7  -2  -5 3128.29  259.17
  -7  -2  -5 3282.17  316.97
   7   2   5 3023.30  261.87
  -8  -2  -5  162.48   97.89
  -8  -2  -5  428.16   91.39
   8   2   5  473.15   95.99
  -9  -2  -5   34.50   76.79
  -9  -2  -5  119.09   58.09
   9   2   5  143.69   66.59
 -10  -2  -5   57.19   86.79
 -10  -2  -5  105.29   63.09
  10   2   5  127.89   80.39
   8  -3  -5   41.20   68.89
  -8   3   5  122.09   85.09
   7  -3  -5  251.97   69.19
   7  -3  -5  579.64  118.39
  -7   3   5  379.96  120.29
   6  -3  -5  255.07   79.89
   6  -3  -5  167.18   53.19
  -6   3   5   50.99   46.10
   5  -3  -5  615.74   88.79
   5  -3  -5  644.64  105.29
  -5   3   5  503.65  120.89
  -5   3   5  611.24  108.79
   4  -3  -5   30.50   23.60
   4  -3  -5  -32.10   18.20
   4  -3  -5  -20.90   23.40
  -4   3   5   49.80   38.10
  -4   3   5   21.20   43.80
   3  -3  -5   96.39   42.00
   3  -3  -5  137.69   32.80
   3  -3  -5  222.68   47.20
  -3   3   5  201.18   66.69
  -3   3   5  109.69   44.40
   2  -3  -5   -2.40   15.30
   2  -3  -5   22.70   13.40
   2  -3  -5   28.50   19.70
  -2   3   5   38.40   38.90
  -2   3   5   35.60   31.00
   1  -3  -5 5581.04  374.76
   1  -3  -5 5499.35  384.96
   1  -3  -5 5510.15  393.26
  -1   3   5 5448.85  425.96
  -1   3   5 5211.58  399.46
   0  -3  -5 3142.59  231.48
   0  -3  -5 2913.21  226.48
   0  -3  -5 3292.97  226.28
   0  -3  -5 2989.10  214.98
   0   3   5 3279.87  270.57
   0   3   5 3161.48  240.28
  -1  -3  -5 1328.37  104.29
  -1  -3  -5 1079.99   90.79
  -1  -3  -5 1260.07   97.29
  -1  -3  -5 1231.58   90.09
  -1  -3  -5 1265.07   99.79
  -1  -3  -5 1349.66   99.79
  -2  -3  -5 2318.47  169.08
  -2  -3  -5 2436.86  167.18
  -2  -3  -5 2274.37  165.28
  -2  -3  -5 2365.06  173.08
  -2  -3  -5 2213.08  163.78
  -2  -3  -5 2130.59  166.88
  -3  -3  -5  118.69   20.80
  -3  -3  -5  106.69   21.20
  -3  -3  -5   92.99   29.50
  -3  -3  -5  147.99   34.00
  -4  -3  -5  162.98   27.90
  -4  -3  -5  141.99   51.69
  -4  -3  -5  255.57   46.70
  -4  -3  -5  161.38   41.40
  -4  -3  -5  180.98   27.90
  -4  -3  -5  142.19   23.30
  -5  -3  -5  593.54   85.09
  -5  -3  -5  660.53   66.29
  -5  -3  -5  697.23   56.89
  -5  -3  -5  615.74   59.49
  -5  -3  -5  707.63   62.59
  -5  -3  -5  680.63   93.29
   5   3   5  896.31  161.08
  -6  -3  -5   -9.30   17.30
  -6  -3  -5   84.49   27.50
  -6  -3  -5   37.20   14.30
  -6  -3  -5   45.00   16.80
   6   3   5   12.30   23.70
  -7  -3  -5   71.89   39.30
  -7  -3  -5   57.39   23.60
  -7  -3  -5  121.39   38.50
   7   3   5   89.19   40.30
  -8  -3  -5 1652.03  200.48
   8   3   5 1657.03  194.08
  -9  -3  -5   80.99   52.49
   9   3   5  -10.50   34.50
 -10  -3  -5  931.71  154.78
  10   3   5 1146.29  186.28
 -11  -3  -5  706.03  151.48
  11   3   5  626.24  144.09
   7  -4  -5    5.90   53.69
  -7   4   5  104.59   81.09
   6  -4  -5 1591.64  180.38
   6  -4  -5 1910.51  217.88
  -6   4   5 1335.27  230.68
   5  -4  -5 1156.58  139.19
   5  -4  -5 1554.14  184.98
   5  -4  -5 1122.99  149.59
  -5   4   5 1291.17  154.08
  -5   4   5  835.22  176.38
   4  -4  -5  241.38   65.99
   4  -4  -5  182.48   55.89
   4  -4  -5  181.88   45.30
  -4   4   5  211.58   56.49
  -4   4   5  262.07   91.49
   3  -4  -5    9.00   15.90
   3  -4  -5   32.40   29.20
   3  -4  -5  -10.80   22.00
  -3   4   5    1.50   39.70
  -3   4   5   11.90   23.60
   2  -4  -5 2233.28  199.98
   2  -4  -5 2548.74  182.38
   2  -4  -5 2441.26  182.08
  -2   4   5 2189.88  196.28
  -2   4   5 2336.87  238.88
   1  -4  -5   37.20   16.30
   1  -4  -5   86.69   20.50
   1  -4  -5   56.29   29.50
  -1   4   5   66.19   31.30
  -1   4   5   75.89   57.49
   0  -4  -5  286.87   49.20
   0  -4  -5  254.67   47.60
   0  -4  -5  264.77   33.10
   0   4   5  371.96   89.49
   0   4   5  314.47   60.89
  -1  -4  -5   37.90   20.00
  -1  -4  -5   45.50   20.40
  -1  -4  -5   37.60    9.10
  -1  -4  -5   33.10   16.30
   1   4   5   40.50   16.40
   1   4   5   31.30   35.20
  -2  -4  -5 1836.02  138.79
  -2  -4  -5 1825.82  145.09
  -2  -4  -5 1780.32  122.69
  -2  -4  -5 1883.91  136.79
  -2  -4  -5 1846.72  134.29
  -2  -4  -5 1711.33  144.49
   2   4   5 1716.63  168.18
  -3  -4  -5 6125.59  421.36
  -3  -4  -5 6341.67  431.96
  -3  -4  -5 6278.97  447.86
  -3  -4  -5 6351.26  450.25
  -3  -4  -5 6239.48  434.66
  -3  -4  -5 6714.43  426.36
   3   4   5 6496.15  470.95
  -4  -4  -5  366.06   45.90
  -4  -4  -5  227.18   40.20
  -4  -4  -5  344.17   68.89
  -4  -4  -5  241.38   51.09
  -4  -4  -5  241.38   29.00
  -4  -4  -5  323.27   40.70
   4   4   5  520.95  108.19
  -5  -4  -5 2132.69  148.89
  -5  -4  -5 2179.18  186.38
  -5  -4  -5 1984.00  182.78
  -5  -4  -5 2031.70  150.88
  -5  -4  -5 1843.62  154.38
  -5  -4  -5 2083.09  149.88
   5   4   5 2089.89  262.67
  -6  -4  -5  453.55   88.79
  -6  -4  -5  519.35   64.19
  -6  -4  -5  494.95   64.59
  -6  -4  -5  610.04   63.09
   6   4   5  397.46  124.29
   6   4   5  577.64   83.39
  -7  -4  -5   19.50   24.90
  -7  -4  -5   26.70   24.30
  -7  -4  -5   43.20   19.30
  -7  -4  -5    7.60   15.40
   7   4   5   45.40   30.20
  -8  -4  -5  541.85  106.69
   8   4   5  205.08   58.59
  -9  -4  -5   -6.10   33.70
   9   4   5  -18.40   26.10
 -10  -4  -5   37.00   49.50
  10   4   5   97.39   59.89
 -11  -4  -5  193.48   79.49
  11   4   5  351.46  110.59
  -7   5   5 1119.29  250.27
  -6   5   5  228.98  106.69
   5  -5  -5  168.78   63.89
  -5   5   5  204.88  102.59
   4  -5  -5   15.10   35.90
   4  -5  -5   30.50   40.40
   4  -5  -5  -27.20   18.00
  -4   5   5    5.70   57.49
  -4   5   5   34.00   51.79
  -4   5   5    3.30   23.90
   3  -5  -5 1350.16  135.29
   3  -5  -5 1621.74  181.68
   3  -5  -5 1616.94  132.29
  -3   5   5 1098.99  181.68
  -3   5   5 1460.15  137.99
  -3   5   5 1025.20  202.58
   2  -5  -5 3104.99  236.98
   2  -5  -5 3141.59  241.88
   2  -5  -5 3354.56  265.57
  -2   5   5 3281.27  311.27
   1  -5  -5   42.40   22.50
   1  -5  -5    7.20   11.30
   1  -5  -5   -2.20   18.70
  -1   5   5    0.50   37.20
   0  -5  -5  571.24   79.69
   0  -5  -5  603.24   85.49
   0  -5  -5  630.24   55.39
   0   5   5  664.73  126.79
   0   5   5  675.73   75.19
  -1  -5  -5   55.39   26.50
  -1  -5  -5   99.69   26.30
   1   5   5   40.50   39.50
   1   5   5   50.99   18.60
  -2  -5  -5  249.08   54.09
  -2  -5  -5  260.47   41.50
  -2  -5  -5  344.27   42.10
   2   5   5  292.57   77.79
  -3  -5  -5  204.48   33.60
  -3  -5  -5  108.29   35.70
  -3  -5  -5  227.38   20.70
  -3  -5  -5  159.08   32.20
  -3  -5  -5  234.48   52.79
   3   5   5  178.88   59.39
   3   5   5  100.59   50.49
  -4  -5  -5   18.50   22.40
  -4  -5  -5   19.60   12.90
  -4  -5  -5   45.20   31.70
  -4  -5  -5   -5.80   10.50
  -4  -5  -5   -3.10    6.40
   4   5   5  -17.70   30.00
  -5  -5  -5  523.25   60.49
  -5  -5  -5  477.05   62.79
   5   5   5  543.15  132.39
  -6  -5  -5 3477.25  241.28
  -6  -5  -5 3429.46  293.47
  -6  -5  -5 3479.15  257.47
  -6  -5  -5 3401.66  250.27
   6   5   5 3675.73  350.96
  -7  -5  -5 1865.81  150.38
  -7  -5  -5 1943.71  158.58
  -7  -5  -5 1694.63  211.68
   7   5   5 1924.71  171.38
  -8  -5  -5  562.54   78.69
  -8  -5  -5  398.56   92.19
   8   5   5  367.26   84.19
  -9  -5  -5  471.55  110.99
   9   5   5  401.26   88.29
 -10  -5  -5  116.89   68.39
  10   5   5   16.40   46.20
 -11  -5  -5  270.77   94.29
  11   5   5  112.89   79.69
  -6   6   5  545.95  182.58
  -5   6   5   87.49   70.59
  -5   6   5  108.09  109.39
  -4   6   5 1237.58  231.68
  -4   6   5  926.11  179.38
  -3   6   5  608.54  153.58
   2  -6  -5  156.58   49.60
   2  -6  -5  160.88   54.19
  -2   6   5  181.98   93.59
   1  -6  -5  873.81  117.79
  -1   6   5  839.32  171.98
   0  -6  -5  117.29   36.20
   0   6   5  158.18   67.99
  -1  -6  -5 4880.91  351.86
  -1  -6  -5 4636.04  365.76
   1   6   5 5242.98  405.56
  -2  -6  -5 1219.68  132.29
  -2  -6  -5 1027.20   92.49
   2   6   5  904.51  148.39
  -3  -6  -5  676.83   99.69
  -3  -6  -5  620.34   75.89
  -3  -6  -5  670.13   74.99
   3   6   5  780.22  127.59
   3   6   5  508.95  103.49
  -4  -6  -5   73.69   25.00
  -4  -6  -5   29.30   17.60
  -4  -6  -5   24.30   26.90
   4   6   5   12.30   36.60
  -5  -6  -5  444.36   62.29
  -5  -6  -5  432.26   60.49
  -5  -6  -5  477.25   44.00
  -5  -6  -5  334.67   77.69
   5   6   5  637.74  142.59
  -6  -6  -5  245.98   43.10
  -6  -6  -5   66.59   47.90
  -6  -6  -5  200.28   44.10
   6   6   5  252.37  104.59
  -7  -6  -5   66.69   48.00
  -7  -6  -5   12.60   16.80
  -7  -6  -5   14.90   18.70
   7   6   5  -35.20   55.29
  -8  -6  -5  -13.10   33.70
  -8  -6  -5   31.10   24.60
  -8  -6  -5   41.40   25.70
   8   6   5    5.60   25.10
  -9  -6  -5 1135.79  179.98
   9   6   5 1005.00  147.49
 -10  -6  -5 1491.55  222.68
  10   6   5 1978.00  229.18
 -11  -6  -5    9.80   58.69
  11   6   5  -85.49   41.00
  -5   7   5   73.09   92.59
  -4   7   5  465.75  159.38
  -3   7   5  -17.00   69.59
  -2   7   5  302.37  122.99
  -1   7   5  434.76  128.79
   0   7   5 1211.78  198.58
  -1  -7  -5  322.07   81.29
   1   7   5  280.47   83.19
  -2  -7  -5  175.18   49.90
   2   7   5   50.09   44.30
   2   7   5  199.78   76.29
  -3  -7  -5  178.88   26.30
  -3  -7  -5  169.18   37.80
  -3  -7  -5  177.78   54.69
   3   7   5  169.48   62.39
   3   7   5   82.59   49.50
  -4  -7  -5 2924.91  224.08
  -4  -7  -5 2793.92  255.07
  -4  -7  -5 2965.60  227.58
   4   7   5 3320.37  287.07
  -5  -7  -5 2781.72  220.18
  -5  -7  -5 2648.33  252.97
  -5  -7  -5 2969.40  217.58
   5   7   5 2787.12  334.97
  -6  -7  -5    8.40   19.80
  -6  -7  -5   50.29   22.90
   6   7   5  -12.40   53.49
  -7  -7  -5  139.89   62.59
  -7  -7  -5  114.39   37.20
  -7  -7  -5  124.89   38.70
   7   7   5  227.68  101.09
  -8  -7  -5  223.38   51.49
  -8  -7  -5  166.78   79.29
  -8  -7  -5  295.57   64.59
   8   7   5  222.98   62.89
   8   7   5  177.68   96.39
  -9  -7  -5  -21.10   51.29
  -9  -7  -5   20.70   29.00
   9   7   5   62.89   45.70
 -10  -7  -5  -13.80   43.20
  10   7   5   16.00   41.50
 -11  -7  -5  -31.20   49.00
  11   7   5   57.99   60.89
  -4   8   5  223.28  116.49
  -3   8   5  523.85  163.88
  -2   8   5  -24.00   58.99
  -1   8   5  890.21  183.18
   0   8   5  477.45  127.79
   1   8   5  461.75  119.69
  -2  -8  -5    5.80   29.20
  -2  -8  -5   23.40   19.00
   2   8   5   -9.80   29.30
   2   8   5   79.99   48.00
  -3  -8  -5 1423.96  170.08
  -3  -8  -5  867.91  104.79
   3   8   5  864.31  153.98
   3   8   5  949.21  163.48
  -4  -8  -5  289.47   81.09
  -4  -8  -5  289.27   55.29
  -4  -8  -5  581.74   76.39
   4   8   5  294.57   91.49
  -5  -8  -5  349.07   59.89
  -5  -8  -5  193.78   69.99
  -5  -8  -5  178.38   42.30
   5   8   5  171.58   77.29
  -6  -8  -5  611.74   87.89
  -6  -8  -5  433.46  103.79
  -6  -8  -5  551.24   79.09
   6   8   5  693.43  163.48
  -7  -8  -5  870.21  108.99
  -7  -8  -5  634.74  137.59
  -7  -8  -5  556.34   86.29
   7   8   5  626.44  169.78
  -8  -8  -5 2907.71  226.98
  -8  -8  -5 2613.74  319.67
  -8  -8  -5 2516.85  227.88
   8   8   5 2800.42  380.96
  -9  -8  -5  130.59   51.09
  -9  -8  -5  149.09   84.19
   9   8   5  169.48   65.99
   9   8   5  116.89  110.79
 -10  -8  -5  -36.80   66.19
  10   8   5   30.30   41.60
   3  -9  -5   50.39   43.90
  -3   9   5   27.10   83.89
   2  -9  -5  523.65  102.29
  -2   9   5  453.05  148.69
   1  -9  -5  293.97   69.09
  -1   9   5  278.77  110.09
   0  -9  -5  884.81  115.79
   0   9   5  727.33  158.68
  -1  -9  -5  855.01  103.89
   1   9   5  659.43  143.39
   1   9   5  622.64  142.39
   2   9   5  868.91  159.08
   2   9   5  766.02  157.38
  -3  -9  -5 1596.44  205.88
  -3  -9  -5 1451.65  165.18
   3   9   5 1707.23  236.38
   3   9   5 1385.56  201.38
  -4  -9  -5   30.10   38.10
  -4  -9  -5   46.20   26.50
   4   9   5   88.49   60.89
  -5  -9  -5   29.10   42.50
  -5  -9  -5   62.39   32.50
  -5  -9  -5   41.60   26.70
   5   9   5  106.79   60.59
  -6  -9  -5  561.34   86.39
  -6  -9  -5  603.24   91.49
  -6  -9  -5  548.85  121.19
   6   9   5  573.94  157.48
  -7  -9  -5  358.86   71.69
  -7  -9  -5  441.76   76.79
   7   9   5  493.05  156.28
  -8  -9  -5  241.88   96.29
  -8  -9  -5   75.39   40.40
  -8  -9  -5   68.19   41.90
   8   9   5  167.98  108.99
  -9  -9  -5  387.96  125.79
  -9  -9  -5  633.34  106.69
   9   9   5  693.33  181.38
   9   9   5  343.27  105.59
 -10  -9  -5   40.60   58.79
  10   9   5   94.59   54.99
   2 -10  -5   -9.60   39.60
  -2  10   5    5.20   71.09
   1 -10  -5  679.33  113.19
  -1  10   5  474.75  142.89
   0 -10  -5  158.48   54.79
   0  10   5   59.19   77.49
   1  10   5  729.03  162.18
   1  10   5  670.83  149.49
   2  10   5  550.24  127.69
   2  10   5  415.26  129.49
   3  10   5  618.64  130.59
   3  10   5  633.74  150.58
  -4 -10  -5 1157.58  133.59
  -4 -10  -5 1358.96  194.58
   4  10   5 1064.79  206.48
  -5 -10  -5  -19.90   20.10
  -5 -10  -5   38.80   26.70
  -5 -10  -5   34.90   49.70
   5  10   5  -69.09   44.60
  -6 -10  -5 1507.95  228.98
  -6 -10  -5 1676.03  174.28
   6  10   5 1324.47  252.17
  -7 -10  -5   71.29   59.49
  -7 -10  -5   97.59   42.60
   7  10   5   93.09   92.69
  -8 -10  -5   86.59   81.69
  -8 -10  -5   80.99   41.10
   8  10   5  227.68  131.49
  -9 -10  -5   80.69   80.39
  -9 -10  -5   12.50   37.10
   9  10   5   21.40   95.49
   0  11   5   44.20   88.79
   0  11   5  -37.20   51.29
   1  11   5  296.97  106.29
   1  11   5  228.18  112.19
   2  11   5  626.94  170.38
   2  11   5  349.37  106.29
   3  11   5  352.76  101.79
   3  11   5  424.26  142.89
  -4 -11  -5  201.58   56.39
   4  11   5  253.87  108.39
  -5 -11  -5  231.18   94.89
  -5 -11  -5  382.16   72.19
   5  11   5  330.97  137.69
  -6 -11  -5  359.16  112.09
  -6 -11  -5  345.37   72.19
   6  11   5  441.46  158.08
  -7 -11  -5 1484.85  233.68
  -7 -11  -5  995.90  138.19
   7  11   5 1219.58  259.67
  -8 -11  -5  146.39   88.59
  -8 -11  -5  257.87   69.19
   8  11   5  177.18  130.59
  -9 -11  -5  438.46   91.79
  -9 -11  -5  301.47  126.49
   2  12   5  786.62  206.48
   2  12   5  660.43  148.19
   3  12   5   78.39   99.49
   4  12   5  159.18  118.89
  -5 -12  -5   26.60   30.30
   5  12   5  -16.10   68.29
  -6 -12  -5  747.73  180.28
  -6 -12  -5 1054.89  142.39
   6  12   5  715.63  206.08
  -7 -12  -5   15.20   57.79
  -7 -12  -5    5.90   31.80
   7  12   5   14.90  103.09
  -5 -11   6  247.08   74.49
  -5 -11   6  139.09   75.89
  -4 -11   6  520.15  133.89
   3  11  -6  395.96  133.39
  -3 -11   6  441.36  112.89
   2  11  -6  588.04  164.98
  -2 -11   6  428.86  112.79
   1  11  -6  215.08  118.29
   1  11  -6  116.39  107.29
   7  10  -6   31.80   64.89
  -7 -10   6   99.79   74.39
  -6 -10   6  152.18   73.09
  -5 -10   6  140.39   57.69
  -5 -10   6  -41.40   42.50
  -4 -10   6 2405.36  291.37
   3  10  -6  164.48   89.09
  -3 -10   6  260.47   84.29
   2  10  -6  697.93  176.38
   2  10  -6  535.65  133.59
  -2 -10   6  724.53  138.09
   1  10  -6   89.09   90.69
   1  10  -6  295.77  117.69
  -1 -10   6  376.46  103.39
   0  10  -6  230.98  121.69
   0  10  -6  485.35  153.08
   0 -10   6  468.25  118.99
  -1  10  -6  727.13  185.18
   1 -10   6  386.16  116.59
   8   9  -6  356.36  101.29
   7   9  -6    5.30   45.20
  -7  -9   6  149.19   82.09
  -6  -9   6   10.40   45.20
  -5  -9   6  235.08   65.69
  -5  -9   6   81.99   70.89
  -4  -9   6  543.35  118.19
   3   9  -6   76.69   56.39
   3   9  -6   29.00   56.09
  -3  -9   6   11.00   44.20
   2   9  -6  -15.60   47.80
   2   9  -6   13.50   54.69
  -2  -9   6   18.20   35.50
  -2  -9   6   -6.20   42.40
   1   9  -6 1758.82  254.47
   1   9  -6 1541.05  249.68
  -1  -9   6 1620.64  217.48
   0   9  -6  876.21  193.48
   0  -9   6  966.20  160.88
  -1   9  -6   76.29   90.19
   1  -9   6   47.00   50.59
  -2   9  -6  299.27  138.39
   2  -9   6  242.38   82.49
   3  -9   6  130.79   65.39
   9   8  -6  -11.40   45.40
   8   8  -6  786.82  147.99
   7   8  -6  149.49   64.39
  -7  -8   6   35.40   52.69
   6   8  -6 3124.29  281.87
  -6  -8   6 3098.59  299.47
  -5  -8   6 1095.99  175.08
  -5  -8   6 1065.19  143.59
   4   8  -6   27.60   38.00
  -4  -8   6  -23.40   37.40
  -4  -8   6   20.60   27.80
  -4  -8   6    5.60   35.90
   3   8  -6   16.40   45.80
   3   8  -6    5.60   36.10
  -3  -8   6   42.20   35.60
  -3  -8   6    4.90   45.60
   2   8  -6   75.19   65.59
   2   8  -6   48.80   56.59
  -2  -8   6  119.19   66.19
  -2  -8   6   71.99   47.60
   1   8  -6  998.90  185.08
   1   8  -6  900.51  159.78
  -1  -8   6  746.03  144.29
  -1  -8   6  687.63  135.49
   0   8  -6   47.40   54.49
   0  -8   6   24.50   47.10
  -1   8  -6  134.99   88.79
   1  -8   6  255.17   79.79
  -2   8  -6  244.98  114.69
   2  -8   6  270.57   89.49
   3  -8   6 1134.49  172.78
   4  -8   6   11.90   48.50
   9   7  -6   87.19   61.39
   8   7  -6   56.79   47.30
   7   7  -6   17.90   40.90
  -7  -7   6   17.20   58.09
   6   7  -6   18.30   38.30
  -6  -7   6   -7.60   39.50
  -5  -7   6  313.67   91.59
   4   7  -6   80.99   43.10
  -4  -7   6  111.59   58.19
  -4  -7   6  110.79   41.00
  -4  -7   6  166.98   64.89
   3   7  -6 2098.79  240.48
   3   7  -6 1921.21  182.28
  -3  -7   6 1602.14  202.88
  -3  -7   6 2076.39  201.68
   2   7  -6 3512.95  295.17
   2   7  -6 3514.65  317.17
  -2  -7   6 3224.78  295.77
  -2  -7   6 3291.17  286.17
   1   7  -6   65.29   51.69
   1   7  -6  160.18   74.59
  -1  -7   6  190.58   64.99
  -1  -7   6  118.99   49.20
   0   7  -6  -31.20   36.20
   0  -7   6   16.60   34.30
  -1   7  -6  -19.40   48.90
   1  -7   6    4.30   31.70
  -2   7  -6  842.72  179.48
   2  -7   6  470.35  103.49
   3  -7   6  416.66  103.19
  -4   7  -6  172.68   89.19
   4  -7   6  144.49   63.59
  -5   7  -6   57.29   83.69
   5  -7   6   50.09   49.30
   9   6  -6  379.26  101.49
  -9  -6   6  179.88  100.89
   8   6  -6 1634.14  202.68
   7   6  -6 1299.57  168.38
  -7  -6   6 1221.48  186.88
   6   6  -6   11.50   33.00
  -6  -6   6   91.39   38.60
   5   6  -6   75.49   37.10
  -5  -6   6   37.70   40.30
   4   6  -6  236.38   59.99
  -4  -6   6  227.28   77.39
   3   6  -6  224.98   57.69
   3   6  -6  165.98   58.29
  -3  -6   6  289.17   81.59
  -3  -6   6  166.28   52.39
  -3  -6   6  275.57   70.99
   2   6  -6  209.58   72.39
   2   6  -6  277.17   71.09
  -2  -6   6  310.17   77.69
  -2  -6   6  306.07   76.99
   1   6  -6 1415.66  190.08
  -1  -6   6 1083.49  154.18
  -1  -6   6 1125.89  148.99
   0   6  -6  269.57   89.89
   0  -6   6  262.07   73.29
  -1   6  -6 4116.19  355.36
   1  -6   6 3398.06  300.97
  -2   6  -6  640.94  118.99
  -2   6  -6  356.46  120.89
   2  -6   6  525.45  101.29
  -3   6  -6  -25.30   51.39
  -3   6  -6   50.09   62.79
   3  -6   6   80.69   41.50
  -4   6  -6   51.59   57.09
   4  -6   6   23.50   33.90
   4  -6   6  -13.20   56.49
  -5   6  -6  508.05  140.39
   5  -6   6  145.39   63.19
   5  -6   6  154.18  100.59
  -6   6  -6  522.75  163.98
   6  -6   6  630.94  130.69
   6  -6   6  576.54  149.88
   9   5  -6  151.98   71.59
  -9  -5   6  341.57  121.09
   8   5  -6  134.19   59.89
  -8  -5   6  206.38   98.19
   7   5  -6  965.60  134.29
  -7  -5   6 1110.19  163.58
   6   5  -6 1663.93  156.98
  -6  -5   6 1555.24  209.88
  -5  -5   6  692.33  125.09
   4   5  -6 3089.89  256.67
  -4  -5   6 3896.71  301.57
   3   5  -6  542.65   80.49
   3   5  -6  714.33  104.39
  -3  -5   6  706.93  118.59
  -3  -5   6  450.45   76.79
  -3  -5   6  664.93  112.69
   2   5  -6   62.29   37.40
   2   5  -6  175.18   46.90
  -2  -5   6  104.89   43.00
  -2  -5   6  118.59   50.59
   1   5  -6  858.51  133.29
  -1  -5   6  965.20  132.09
  -1  -5   6  647.94  102.79
   0   5  -6   44.70   23.60
   0   5  -6   63.09   54.29
   0  -5   6   12.00   32.50
  -1   5  -6   56.79   25.70
  -1   5  -6   80.59   59.39
  -1   5  -6  144.19   49.50
   1  -5   6  145.49   52.89
  -2   5  -6  863.01   93.29
  -2   5  -6  872.61  126.69
  -2   5  -6 1391.06  163.88
  -2   5  -6 1187.08  188.48
  -2   5  -6  826.02   71.69
   2  -5   6 1083.09  142.19
  -3   5  -6   72.99   63.59
  -3   5  -6   71.69   52.19
  -3   5  -6  130.19   49.30
   3  -5   6  100.99   45.80
   3  -5   6  111.29   72.49
  -4   5  -6 2061.89  259.37
  -4   5  -6 1589.94  202.28
   4  -5   6 2043.90  192.78
   4  -5   6 1754.42  246.28
  -5   5  -6 1557.74  191.48
  -5   5  -6 1399.16  231.28
   5  -5   6 1362.76  213.78
   5  -5   6 1232.48  169.78
  -6   5  -6   90.19   52.29
  -6   5  -6  108.59   88.29
   6  -5   6   87.39   72.59
   6  -5   6   12.60   34.50
  -7   5  -6   47.40   84.69
  -7   5  -6  -35.20   33.10
   7  -5   6   -7.40   64.09
  10   4  -6  210.98  111.69
 -10  -4   6  266.07  138.09
  -9  -4   6  176.68  100.79
   8   4  -6  138.59   65.79
  -8  -4   6  198.88   92.49
   7   4  -6   33.70   31.90
  -7  -4   6  -11.60   47.60
  -7  -4   6    9.30   29.60
   6   4  -6  221.98   55.49
  -6  -4   6  141.09   62.39
   5   4  -6  220.38   51.09
  -5  -4   6  110.69   54.39
  -4  -4   6  811.82  134.59
   3   4  -6 3458.85  252.87
  -3  -4   6 3441.76  285.07
  -3  -4   6 3375.66  287.27
   2   4  -6   54.39   26.30
   2   4  -6   88.09   37.00
   2   4  -6   82.79   28.50
  -2  -4   6   39.40   33.40
  -2  -4   6   89.39   45.50
   1   4  -6 2845.42  226.98
   1   4  -6 3113.29  252.77
  -1  -4   6 2974.40  254.07
  -1  -4   6 2945.31  243.58
   0   4  -6 1959.00  173.48
   0   4  -6 2081.89  156.88
   0   4  -6 1654.53  200.88
   0  -4   6 1742.33  176.38
  -1   4  -6   26.60   37.60
  -1   4  -6   -2.10   18.80
  -1   4  -6   10.10   21.60
  -1   4  -6    4.10   15.00
   1  -4   6   19.50   26.20
  -2   4  -6  261.37   67.89
  -2   4  -6  342.47   43.60
  -2   4  -6  248.88   80.49
  -2   4  -6  233.48   58.09
  -2   4  -6  305.87   45.30
   2  -4   6  411.16   76.49
   2  -4   6  446.86  102.69
  -3   4  -6  -27.60   27.50
  -3   4  -6    2.70   20.10
  -3   4  -6  -12.10   34.00
  -3   4  -6   -2.10   21.00
  -3   4  -6    5.60   11.70
   3  -4   6  -16.00   22.60
   3  -4   6   80.99   60.69
  -4   4  -6  456.15  108.59
  -4   4  -6  359.76   76.09
   4  -4   6  317.37   97.39
   4  -4   6  270.17   67.49
  -5   4  -6   16.30   55.89
  -5   4  -6  152.18   56.69
   5  -4   6  125.69   65.29
  -6   4  -6  453.75  133.89
  -6   4  -6  378.96   87.79
   6  -4   6  312.07  102.49
  -7   4  -6  433.06   96.49
  -7   4  -6  214.28  100.29
   7  -4   6  558.34  140.19
  -8   4  -6 1135.49  172.88
   8  -4   6 1213.18  225.78
  -9  -3   6 1197.18  240.08
   8   3  -6 2136.39  233.38
  -8  -3   6 2268.37  314.27
   7   3  -6   46.70   38.80
  -7  -3   6  -28.00   31.00
   6   3  -6 1344.87  140.09
  -6  -3   6  978.90  144.39
  -6  -3   6 1234.88  197.88
   5   3  -6   24.50   22.90
  -5  -3   6   28.80   34.30
  -5  -3   6   38.60   40.40
  -4  -3   6   49.60   41.80
  -4  -3   6   67.99   39.80
  -3  -3   6  564.24  108.79
   2   3  -6   25.60   22.60
   2   3  -6   63.19   27.00
   2   3  -6   54.29   18.10
  -2  -3   6   45.10   32.70
  -2  -3   6   12.70   29.00
   1   3  -6  249.58   47.40
   1   3  -6  275.47   58.49
   1   3  -6  343.17   67.29
  -1  -3   6  391.16   81.69
  -1  -3   6  329.37   70.79
   0   3  -6 4649.73  339.77
   0   3  -6 4434.36  325.97
   0   3  -6 4435.46  349.87
   0  -3   6 4702.23  355.56
  -1   3  -6 2002.90  190.08
  -1   3  -6 2037.20  159.38
  -1   3  -6 2204.78  171.58
  -1   3  -6 1758.12  152.58
   1  -3   6 2104.69  181.78
  -2   3  -6 2105.09  180.58
  -2   3  -6 2094.69  208.78
  -2   3  -6 2112.59  175.48
  -2   3  -6 2014.20  156.48
   2  -3   6 2156.88  210.18
   2  -3   6 2146.39  184.68
  -3   3  -6 2026.70  162.18
  -3   3  -6 1760.82  171.88
  -3   3  -6 1689.43  129.79
  -3   3  -6 1880.31  224.68
   3  -3   6 1624.94  160.38
   3  -3   6 1908.11  215.88
  -4   3  -6  355.46   88.89
  -4   3  -6  272.07   25.70
  -4   3  -6  226.28   58.09
   4  -3   6  403.06   97.99
  -5   3  -6  605.44  128.09
  -5   3  -6  484.15   89.69
   5  -3   6  579.14  119.19
  -6   3  -6   46.30   68.19
  -6   3  -6   95.89   43.50
   6  -3   6  -14.30   48.60
  -7   3  -6  432.36   94.79
  -7   3  -6  239.78  113.69
   7  -3   6  311.77  103.49
  -8   3  -6    0.60   33.80
  -8   3  -6   75.59   92.29
   8  -3   6   67.19   82.29
   9   2  -6  331.47  120.49
  -9  -2   6  297.37  137.89
  -8  -2   6  -27.00   59.89
   7   2  -6   15.70   34.50
  -7  -2   6   -0.80   55.09
   6   2  -6  436.26   74.69
  -6  -2   6  387.56  111.09
   5   2  -6 5737.73  412.76
  -5  -2   6 5889.81  470.85
  -5  -2   6 5889.31  435.36
   4   2  -6 1845.12  144.29
  -4  -2   6 1699.03  172.38
  -4  -2   6 1969.50  191.18
  -4  -2   6 1646.94  195.18
  -3  -2   6  893.11  130.19
  -3  -2   6  971.40  139.99
  -3  -2   6 1320.37  158.88
   2   2  -6  249.18   54.89
   2   2  -6  195.58   34.10
   2   2  -6  256.07   43.30
  -2  -2   6  218.78   59.59
  -2  -2   6  290.57   71.19
   1   2  -6  186.88   46.60
   1   2  -6  136.89   41.90
   1   2  -6  151.58   36.60
  -1  -2   6  147.29   49.10
  -1  -2   6  213.18   60.89
   0   2  -6  566.24   75.59
   0   2  -6  358.96   58.49
   0   2  -6  360.46   64.29
   0   2  -6  365.46   56.89
   0  -2   6  464.05   80.69
  -1   2  -6  144.99   31.10
  -1   2  -6  204.38   37.60
  -1   2  -6  188.58   39.80
  -1   2  -6  177.98   38.50
  -1   2  -6  170.88   50.09
   1  -2   6  230.78   56.89
  -2   2  -6  180.68   45.30
  -2   2  -6  154.28   35.90
  -2   2  -6  261.27   34.50
  -2   2  -6  182.28   31.00
  -2   2  -6  145.39   36.70
  -2   2  -6  137.99   52.29
   2  -2   6  224.38   67.39
   2  -2   6  161.08   45.20
  -3   2  -6 1670.33  118.99
  -3   2  -6 1695.53  158.78
  -3   2  -6 1661.03  213.28
  -3   2  -6 1546.25  138.09
   3  -2   6 1431.46  180.18
  -4   2  -6 2615.34  219.98
  -4   2  -6 2822.32  193.38
  -4   2  -6 2839.82  251.27
   4  -2   6 2745.03  249.18
  -5   2  -6   -7.90   18.20
  -5   2  -6   27.10   49.60
   5  -2   6   -3.40   33.20
  -6   2  -6 2649.33  258.07
  -6   2  -6 2155.58  198.88
   6  -2   6 1954.70  249.08
  -7   2  -6  472.95   92.49
  -7   2  -6  390.46  122.89
   7  -2   6  312.17   94.89
  -8   2  -6  338.37  130.09
  -8   2  -6  237.38   71.89
   8  -2   6  564.64  137.69
  -9   2  -6  284.07  124.99
  -9   2  -6  165.38   65.79
   9  -2   6  354.56  120.89
   9   1  -6   43.20   60.09
  -9  -1   6   86.49  106.09
   8   1  -6  551.34  133.39
  -8  -1   6  485.55  161.98
   7   1  -6   69.09   47.00
  -7  -1   6   59.59   72.59
   6   1  -6  768.42  101.79
  -6  -1   6 1373.96  218.58
   5   1  -6   91.19   28.30
  -5  -1   6   77.69   55.09
   4   1  -6   19.00   16.10
  -4  -1   6   36.30   37.60
  -4  -1   6   22.80   21.30
   3   1  -6   47.00   17.60
  -3  -1   6   -6.70   25.90
  -3  -1   6   -7.70   17.60
  -3  -1   6   32.10   28.30
   2   1  -6 5045.90  364.36
   2   1  -6 5244.48  356.96
  -2  -1   6 5449.75  389.26
  -2  -1   6 4253.47  371.46
   1   1  -6 6405.46  436.86
   1   1  -6 6259.77  419.26
   1   1  -6 6085.39  419.86
  -1  -1   6 5650.73  455.15
  -1  -1   6 6415.76  457.15
   0   1  -6   18.90   19.10
   0   1  -6   84.19   26.50
   0   1  -6   45.90   22.20
   0   1  -6   24.60   17.30
   0  -1   6   35.10   31.50
  -1   1  -6  659.83   68.89
  -1   1  -6  587.64   88.69
  -1   1  -6  642.34   65.09
  -1   1  -6  856.71   69.49
  -1   1  -6  769.22   62.79
  -2   1  -6  125.79   36.60
  -2   1  -6   44.40   17.40
  -2   1  -6   66.89   19.30
  -2   1  -6   25.60   15.00
  -2   1  -6   59.09   32.50
  -3   1  -6  241.28   42.20
  -3   1  -6  221.08   29.60
  -3   1  -6  261.97   43.10
  -3   1  -6  224.48   34.00
  -3   1  -6  272.27   64.39
  -3   1  -6  189.68   65.39
   3  -1   6  244.48   64.59
  -4   1  -6  471.95   41.70
  -4   1  -6  542.55   72.69
  -4   1  -6  588.04  104.59
   4  -1   6  480.15   91.49
  -5   1  -6   30.40   36.20
  -5   1  -6   -3.20   19.00
   5  -1   6  -13.40   27.90
  -6   1  -6  272.97   61.99
  -6   1  -6  265.87  101.39
   6  -1   6  199.38   68.09
  -7   1  -6 1832.92  176.08
  -7   1  -6 1859.11  261.37
   7  -1   6 1783.02  232.08
  -8   1  -6  351.36   81.89
  -8   1  -6  456.15  136.99
   8  -1   6  460.05  118.39
  -9   1  -6  884.31  217.18
  -9   1  -6  699.73  127.39
   9  -1   6  741.93  159.88
   9   0  -6  405.96  112.09
   8   0  -6   19.90   42.20
  -8   0   6   30.00   73.49
   7   0  -6 1221.98  178.38
  -7   0   6 1387.96  242.98
   6   0  -6 1472.45  154.68
   6   0  -6 1512.85  179.38
  -6   0   6 1015.10  207.58
   5   0  -6  407.76   66.59
   5   0  -6  473.45   75.39
  -5   0   6  591.34  133.99
   4   0  -6   58.49   21.40
   4   0  -6   83.29   30.20
  -4   0   6   16.30   42.30
   3   0  -6 1561.64  137.19
   3   0  -6 1604.94  118.49
  -3   0   6 1911.01  224.28
  -3   0   6 1563.04  150.38
  -3   0   6 1678.93  142.49
   2   0  -6  450.45   64.39
   2   0  -6  531.75   70.69
  -2   0   6  474.95  100.19
  -2   0   6  482.75   79.39
  -2   0   6  531.85   78.49
   1   0  -6  144.49   34.40
   1   0  -6  123.19   28.40
   1   0  -6  113.79   33.10
   1   0  -6  141.89   35.80
  -1   0   6  173.28   47.40
   0   0  -6  442.16   89.49
   0   0  -6  410.06   53.99
   0   0  -6  471.85   71.09
   0   0  -6  493.05   55.69
   0   0  -6  534.95   56.99
   0   0  -6  399.66   64.29
   0   0  -6  486.75   56.29
  -1   0  -6 1508.95  127.39
  -1   0  -6 1334.17  101.99
  -1   0  -6 1336.67  122.99
  -1   0  -6 1439.26  113.59
  -1   0  -6 1321.77  103.19
  -2   0  -6 8337.77  574.74
  -2   0  -6 8234.18  555.34
  -2   0  -6 8170.18  540.75
  -2   0  -6 8118.89  578.44
  -2   0  -6 8309.97  540.95
  -2   0  -6 7484.15  556.94
  -3   0  -6  121.99   49.60
  -3   0  -6   50.79   35.70
  -3   0  -6  138.09   30.50
  -3   0  -6  207.98   31.60
  -3   0  -6  155.78   28.00
  -4   0  -6 1113.89   86.59
  -4   0  -6 1563.84  183.38
  -4   0  -6 1047.10   75.79
  -4   0  -6 1266.17  163.78
  -4   0  -6 1061.19   95.39
  -4   0  -6  987.10   94.79
  -4   0  -6 1072.59   81.69
   4   0   6 1135.49  136.59
  -5   0  -6   61.99   29.40
  -5   0  -6  111.39   51.69
  -5   0  -6  119.99   21.30
   5   0   6   55.99   37.00
  -6   0  -6  -14.40   42.80
  -6   0  -6  -16.80   13.50
   6   0   6  -29.60   28.00
   6   0   6   18.10   37.40
  -7   0  -6  533.65  131.09
  -7   0  -6  478.05   89.29
   7   0   6  529.05  110.19
  -8   0  -6  -14.50   59.29
  -8   0  -6   10.00   27.30
   8   0   6   48.80   53.39
  -9   0  -6 -123.79   53.39
  -9   0  -6   15.50   35.60
   9   0   6   53.09   66.59
 -10   0  -6  918.31  217.18
 -10   0  -6  918.41  154.08
  10   0   6  740.73  164.08
   9  -1  -6  -15.10   38.70
   9  -1  -6  157.08   85.39
   8  -1  -6 1042.90  177.98
   8  -1  -6  895.71  137.69
   7  -1  -6  520.85   91.09
   7  -1  -6  351.26   91.39
  -7   1   6  410.66  130.19
   6  -1  -6  342.47   70.09
   6  -1  -6  380.06   91.19
  -6   1   6  452.95  136.29
   5  -1  -6  492.65   76.59
  -5   1   6  382.86  117.99
   4  -1  -6 2078.29  171.78
  -4   1   6 2042.40  264.57
   3  -1  -6 4614.04  314.77
  -3   1   6 4024.90  364.76
  -3   1   6 4103.79  327.17
   2  -1  -6   35.90   18.90
   2  -1  -6   46.70   19.70
  -2   1   6   67.09   49.99
   1  -1  -6  287.37   27.50
   1  -1  -6  302.17   48.00
   1  -1  -6  305.17   43.70
   1  -1  -6  373.96   50.69
   1  -1  -6  311.07   60.79
  -1   1   6  251.97   45.80
  -1   1   6  197.08   65.79
   0  -1  -6 1214.98  140.69
   0  -1  -6 1083.89   82.89
   0  -1  -6 1038.10   92.49
   0  -1  -6 1065.99   83.49
   0  -1  -6 1130.19  102.39
   0  -1  -6  985.60   83.39
  -1  -1  -6  255.17   22.70
  -1  -1  -6  221.08   61.19
  -1  -1  -6  255.27   23.50
  -1  -1  -6  292.07   52.99
  -1  -1  -6  308.27   44.70
  -2  -1  -6  106.39   12.20
  -2  -1  -6   82.29   10.70
  -3  -1  -6  517.55   44.20
  -3  -1  -6  528.25   45.50
  -3  -1  -6  536.15   93.29
  -3  -1  -6  470.75   43.90
  -3  -1  -6  276.27   63.89
  -4  -1  -6  141.89   31.20
  -4  -1  -6  166.78   57.99
  -4  -1  -6  170.38   33.00
  -4  -1  -6  151.78   20.40
  -4  -1  -6  173.38   22.50
  -4  -1  -6  148.09   29.80
  -5  -1  -6 5287.77  389.06
  -5  -1  -6 5472.05  364.66
  -5  -1  -6 5552.14  389.66
  -5  -1  -6 5522.85  446.86
   5   1   6 5555.64  408.16
  -6  -1  -6 2627.84  268.67
  -6  -1  -6 2620.24  213.18
   6   1   6 2654.23  230.28
  -7  -1  -6  122.39   74.79
  -7  -1  -6   99.09   40.80
   7   1   6  125.29   55.79
  -8  -1  -6  169.98   97.09
  -8  -1  -6   83.49   42.10
   8   1   6   51.99   52.89
  -9  -1  -6  -21.90   27.90
  -9  -1  -6  135.59   96.59
   9   1   6   76.89   62.59
   9   1   6    1.90   48.80
 -10  -1  -6   47.40   45.80
 -10  -1  -6  131.89  121.19
  10   1   6  208.98   87.19
   8  -2  -6  343.67  105.59
   8  -2  -6  179.38   63.19
   7  -2  -6  480.45   93.39
   7  -2  -6  584.14  124.99
  -7   2   6  524.25  129.29
   6  -2  -6   39.40   30.30
   6  -2  -6   41.90   49.30
  -6   2   6  102.99   68.49
   5  -2  -6 1404.86  169.78
   5  -2  -6 1534.05  140.99
  -5   2   6 1510.15  221.58
   4  -2  -6  859.81   97.99
  -4   2   6  694.33  138.49
   3  -2  -6  566.94   71.09
   3  -2  -6  391.16   79.99
  -3   2   6  613.54  125.99
   2  -2  -6 1508.55  131.79
   2  -2  -6 1701.53  129.99
   2  -2  -6 1491.75  143.49
   2  -2  -6 1418.36  124.39
  -2   2   6 1826.02  212.68
   1  -2  -6  140.39   32.90
   1  -2  -6  164.58   30.80
   1  -2  -6  242.88   48.80
   1  -2  -6   99.59   26.00
   1  -2  -6   80.69   22.50
  -1   2   6   89.19   48.20
   0  -2  -6 5967.50  413.36
   0  -2  -6 6383.96  419.46
   0  -2  -6 6023.90  411.76
   0  -2  -6 6466.05  437.16
   0  -2  -6 6003.40  414.66
   0   2   6 5291.77  455.95
  -1  -2  -6 1148.79  105.49
  -1  -2  -6 1278.67  120.89
  -1  -2  -6 1083.49   84.29
  -1  -2  -6 1211.58   84.29
  -1  -2  -6 1122.29   87.29
  -1  -2  -6 1035.60  101.79
  -1  -2  -6 1109.49   95.99
  -2  -2  -6  248.68   28.50
  -2  -2  -6  259.77   25.00
  -2  -2  -6  196.88   55.79
  -2  -2  -6  347.37   43.00
  -3  -2  -6   34.50   13.80
  -3  -2  -6   26.00   13.50
  -3  -2  -6   63.49   14.60
  -3  -2  -6   12.00   10.20
  -4  -2  -6 1135.89  156.88
  -4  -2  -6 1003.10   89.59
  -4  -2  -6 1035.90   79.09
  -4  -2  -6 1103.59   82.99
  -4  -2  -6  963.20   96.89
  -4  -2  -6 1099.99   91.29
  -5  -2  -6  176.68   71.19
  -5  -2  -6   67.39   16.70
  -5  -2  -6   77.29   27.50
  -5  -2  -6   97.29   31.00
  -5  -2  -6  125.09   18.00
  -6  -2  -6  127.09   40.60
  -6  -2  -6   83.29   31.80
  -6  -2  -6   66.99   60.29
  -6  -2  -6   52.99   14.70
   6   2   6   68.39   38.90
  -7  -2  -6  136.09   84.49
  -7  -2  -6  288.57   63.19
   7   2   6  130.09   49.50
  -8  -2  -6 1504.75  179.28
  -8  -2  -6 1734.93  263.57
   8   2   6 1758.82  208.78
  -9  -2  -6 2747.33  231.48
  -9  -2  -6 2364.66  325.27
   9   2   6 1709.43  238.68
 -10  -2  -6  -44.30   85.19
 -10  -2  -6   69.19   54.79
  10   2   6   63.19   60.19
   8  -3  -6  306.67   96.89
   8  -3  -6  195.68   69.79
  -8   3   6  377.76  141.39
   7  -3  -6  791.92  145.59
   7  -3  -6  657.93  113.29
  -7   3   6  438.36  130.49
   6  -3  -6   19.40   40.70
   6  -3  -6  -17.70   25.30
  -6   3   6    2.50   35.50
  -6   3   6    5.70   63.39
   5  -3  -6  619.64   89.39
   5  -3  -6  705.43  110.19
  -5   3   6  543.45  129.49
  -5   3   6  660.13  122.09
   4  -3  -6   -6.60   22.90
   4  -3  -6    1.60   30.30
   4  -3  -6   12.20   22.60
  -4   3   6   68.49   49.80
  -4   3   6   23.80   37.60
   3  -3  -6  439.76   65.89
   3  -3  -6  388.06   79.29
   3  -3  -6  551.94   76.49
  -3   3   6  640.14  118.59
  -3   3   6  613.04  109.69
   2  -3  -6  627.14   75.59
   2  -3  -6  934.61  111.99
  -2   3   6  773.62  119.89
  -2   3   6  741.63  127.99
   1  -3  -6 2300.07  182.78
   1  -3  -6 2099.59  160.48
   1  -3  -6 2177.88  169.88
  -1   3   6 2162.58  193.18
  -1   3   6 1922.01  232.58
   0  -3  -6 1067.09   93.59
   0  -3  -6 1084.29  101.79
   0  -3  -6 1125.69   93.79
   0  -3  -6  985.20   84.99
   0   3   6 1158.08  112.79
  -1  -3  -6  802.82   73.79
  -1  -3  -6  811.22   72.09
  -1  -3  -6  878.01   77.19
  -1  -3  -6  838.32   72.19
  -1  -3  -6  926.41   85.89
  -1  -3  -6  869.51   73.09
  -1  -3  -6  773.72   72.09
  -2  -3  -6  158.88   27.50
  -2  -3  -6  116.09   28.20
  -2  -3  -6  160.98   28.30
  -2  -3  -6  125.09   36.50
  -2  -3  -6  177.18   30.70
  -2  -3  -6  126.89   26.30
  -3  -3  -6 2606.04  222.98
  -3  -3  -6 2797.12  205.68
  -3  -3  -6 2856.71  201.18
  -3  -3  -6 2831.32  207.58
  -3  -3  -6 2797.32  197.78
  -4  -3  -6 3656.73  265.07
  -4  -3  -6 3791.72  253.37
  -4  -3  -6 3732.53  249.28
  -4  -3  -6 3787.52  267.07
  -4  -3  -6 3118.49  252.37
  -5  -3  -6  161.88   42.10
  -5  -3  -6   95.69   28.70
  -5  -3  -6  121.29   22.30
  -5  -3  -6  144.19   41.00
  -5  -3  -6  256.07   82.29
  -5  -3  -6  104.99   29.90
  -5  -3  -6  107.09   24.10
  -6  -3  -6   66.49   30.30
  -6  -3  -6  180.58   75.79
  -6  -3  -6   19.20   19.60
  -6  -3  -6   64.29   21.10
  -6  -3  -6   97.29   19.00
   6   3   6   36.10   27.60
  -7  -3  -6  476.15   60.69
  -7  -3  -6  347.87  108.49
  -7  -3  -6  624.64   87.09
  -7  -3  -6  485.75   82.99
   7   3   6  546.25   87.99
  -8  -3  -6   80.79   39.10
  -8  -3  -6   44.30   62.69
   8   3   6    5.20   32.90
  -9  -3  -6   47.40   38.50
  -9  -3  -6  -48.00   55.09
   9   3   6  -58.19   29.70
 -10  -3  -6  272.97   83.59
 -10  -3  -6  334.77  153.48
  10   3   6  348.87   98.29
  -7   4   6   19.60   62.59
   6  -4  -6  352.76   76.49
   6  -4  -6  337.47   89.49
  -6   4   6  342.87  110.49
   5  -4  -6  435.86   80.59
   5  -4  -6  411.56   89.89
   5  -4  -6  428.36  101.89
  -5   4   6  415.46  119.69
  -5   4   6  481.75   93.99
   4  -4  -6 2329.17  200.98
   4  -4  -6 2422.76  222.88
   4  -4  -6 2420.36  193.78
  -4   4   6 2280.87  287.97
  -4   4   6 2082.59  205.68
   3  -4  -6  400.36   65.89
   3  -4  -6  260.37   50.79
   3  -4  -6  355.96   76.89
  -3   4   6  297.87   96.09
  -3   4   6  474.15   91.19
   2  -4  -6 1060.89   90.79
   2  -4  -6  886.11   86.89
   2  -4  -6  840.32  118.59
  -2   4   6  998.60  162.78
  -2   4   6 1059.19  136.99
   1  -4  -6  220.38   48.80
   1  -4  -6  192.48   33.60
   1  -4  -6  164.18   44.90
   1  -4  -6  208.18   31.90
  -1   4   6  306.67   66.19
  -1   4   6  249.18   83.69
   0  -4  -6 1569.24  107.39
   0  -4  -6 1633.84  138.49
   0  -4  -6 1643.14  135.39
   0  -4  -6 1536.15  111.69
   0  -4  -6 1556.24  117.79
   0   4   6 1375.06  194.18
   0   4   6 1689.23  147.89
  -1  -4  -6  327.27   47.90
  -1  -4  -6  224.58   41.20
  -1  -4  -6  275.67   45.60
  -1  -4  -6  223.98   27.70
   1   4   6  162.28   60.29
  -2  -4  -6 1676.43  141.09
  -2  -4  -6 1835.42  146.39
  -2  -4  -6 1924.91  133.39
  -2  -4  -6 1810.42  145.29
  -2  -4  -6 2052.89  142.39
  -2  -4  -6 1758.42  141.89
  -3  -4  -6  668.43   72.29
  -3  -4  -6  848.82   90.69
  -3  -4  -6  726.03   66.79
  -3  -4  -6  609.84   69.19
  -3  -4  -6  672.43   83.29
  -4  -4  -6 1509.15  118.49
  -4  -4  -6 1483.25  114.29
  -4  -4  -6 1451.05  130.89
  -4  -4  -6 1498.15  137.69
  -4  -4  -6 1448.06  129.09
  -5  -4  -6 1631.94  131.89
  -5  -4  -6 1651.23  128.49
  -5  -4  -6 1704.23  127.49
  -5  -4  -6 1766.02  159.28
  -5  -4  -6 1623.24  152.38
   5   4   6 1867.21  244.08
  -6  -4  -6  741.23   71.39
  -6  -4  -6  869.11   80.49
  -6  -4  -6  840.02  112.99
  -6  -4  -6  944.41   82.79
  -6  -4  -6  846.32   73.29
   6   4   6  667.23  160.78
  -7  -4  -6 3107.29  235.48
  -7  -4  -6 2946.91  220.38
  -7  -4  -6 3270.67  260.57
  -7  -4  -6 3123.79  230.78
   7   4   6 2966.50  250.57
  -8  -4  -6  191.48   52.49
   8   4   6   54.89   39.30
  -9  -4  -6  115.29   54.99
   9   4   6  104.39   51.99
 -10  -4  -6  138.79   61.09
  10   4   6   69.29   57.39
 -11  -4  -6   10.10   42.70
  11   4   6  -49.00   51.99
  -7   5   6  248.08  128.99
  -6   5   6  108.09  101.09
   5  -5  -6 1127.29  142.49
  -5   5   6 1429.96  162.98
  -5   5   6  783.12  191.98
   4  -5  -6  104.29   50.69
   4  -5  -6   48.40   42.30
   4  -5  -6   25.00   29.30
  -4   5   6   14.00   45.40
  -4   5   6   49.00   37.80
   3  -5  -6  590.34  104.99
   3  -5  -6  655.53   94.49
   3  -5  -6  648.14   86.89
  -3   5   6  930.81  123.49
  -3   5   6  731.13  166.38
   2  -5  -6  286.97   49.40
   2  -5  -6  296.67   69.79
   2  -5  -6  286.77   52.39
  -2   5   6  345.07   73.59
  -2   5   6  289.87   95.69
   1  -5  -6 2190.88  269.97
   1  -5  -6 1963.60  151.48
   1  -5  -6 1782.92  171.58
   1  -5  -6 1915.31  146.99
  -1   5   6 2139.99  180.68
  -1   5   6 2513.35  300.07
   0  -5  -6 2146.29  193.28
   0  -5  -6 2342.67  171.58
   0  -5  -6 2498.05  196.38
   0   5   6 2833.12  256.07
  -1  -5  -6  242.68   43.40
  -1  -5  -6  204.38   46.40
  -1  -5  -6  201.68   25.10
   1   5   6   90.39   60.29
   1   5   6  232.58   38.60
  -2  -5  -6 1327.97  108.59
  -2  -5  -6 1211.68  113.79
  -2  -5  -6 1399.56  119.39
  -2  -5  -6 1141.49  101.99
   2   5   6 1393.76  175.08
  -3  -5  -6  310.17   36.50
  -3  -5  -6  295.17   43.00
  -3  -5  -6  307.87   59.29
  -3  -5  -6  368.96   50.29
  -3  -5  -6  212.58   49.80
   3   5   6  355.86   83.19
  -4  -5  -6  125.69   14.90
  -4  -5  -6  114.89   18.10
  -4  -5  -6   92.29   37.90
  -4  -5  -6  151.98   47.60
  -4  -5  -6   66.09   21.10
  -4  -5  -6  113.49   28.80
  -5  -5  -6 1527.25  118.39
  -5  -5  -6 1309.87  159.58
  -5  -5  -6 1390.46   95.79
  -5  -5  -6 1343.97  110.49
  -5  -5  -6 1260.27   99.59
   5   5   6 1592.84  219.88
  -6  -5  -6  397.36   80.09
  -6  -5  -6  499.45   59.09
  -6  -5  -6  351.36   56.59
  -6  -5  -6  384.66   45.90
   6   5   6  349.57  117.39
  -7  -5  -6  516.05   70.69
  -7  -5  -6  433.56   58.99
  -7  -5  -6  338.27   80.29
   7   5   6  755.32  178.28
  -8  -5  -6 1144.29  153.38
  -8  -5  -6 1069.19  119.19
   8   5   6  981.60  136.39
  -9  -5  -6   25.90   38.90
   9   5   6    8.00   36.10
 -10  -5  -6 1516.45  202.18
  10   5   6 1562.44  199.78
 -11  -5  -6  579.74  128.19
  11   5   6  540.05  133.99
  -6   6   6  247.38  116.49
  -6   6   6  233.18  142.49
  -5   6   6  357.66  138.09
  -5   6   6  290.37  109.29
   4  -6  -6  222.88   76.99
  -4   6   6  216.88  110.89
   3  -6  -6   93.79   48.70
  -3   6   6   69.99   74.59
   2  -6  -6 1751.52  176.48
  -2   6   6 1882.41  276.87
   1  -6  -6  415.66   79.99
   1  -6  -6  462.95   57.79
  -1   6   6  338.57  110.49
   0  -6  -6  508.55   87.59
   0  -6  -6  530.05   82.89
   0   6   6  538.45  130.59
  -1  -6  -6  393.56   61.79
  -1  -6  -6  405.36   73.89
   1   6   6  543.05  121.89
  -2  -6  -6  734.33  101.09
  -2  -6  -6  627.54   73.29
  -2  -6  -6  561.04   68.59
   2   6   6  860.31  143.29
  -3  -6  -6 2945.81  245.18
  -3  -6  -6 3068.29  224.18
  -3  -6  -6 3118.19  227.78
   3   6   6 2854.51  267.97
  -4  -6  -6   12.00   14.40
  -4  -6  -6   50.59   21.60
  -4  -6  -6   17.20   24.80
   4   6   6  -17.50   23.80
  -5  -6  -6 1411.86  126.19
  -5  -6  -6 1638.34  184.78
  -5  -6  -6 1496.65  122.89
   5   6   6 1409.36  212.88
  -6  -6  -6   17.60   16.10
  -6  -6  -6    1.70   14.20
  -6  -6  -6    8.70   37.30
   6   6   6   81.79   65.59
  -7  -6  -6  473.95  102.29
  -7  -6  -6  421.16   68.39
  -7  -6  -6  342.07   56.19
   7   6   6  399.66  136.79
  -8  -6  -6  163.78   44.80
  -8  -6  -6  197.68   69.29
  -8  -6  -6  145.69   38.70
   8   6   6   24.10   36.00
  -9  -6  -6  625.34  123.79
   9   6   6  502.15  101.79
 -10  -6  -6  -18.10   41.40
  10   6   6   85.89   58.49
 -11  -6  -6  511.45  124.49
  11   6   6  512.65  121.29
  -5   7   6  -34.70   63.49
  -4   7   6   16.70   73.99
  -3   7   6  117.59   90.89
  -2   7   6 1389.86  249.08
   1  -7  -6   35.80   32.40
  -1   7   6   59.89   56.79
   0  -7  -6  309.47   66.69
   0   7   6  396.46  116.29
  -1  -7  -6 1414.56  177.88
   1   7   6 2124.09  262.57
  -2  -7  -6 1790.62  176.98
   2   7   6 2147.49  259.27
  -3  -7  -6   68.69   26.10
  -3  -7  -6   44.20   35.60
  -3  -7  -6   44.00   23.80
   3   7   6   19.10   37.70
   3   7   6   42.80   46.40
  -4  -7  -6  277.57   50.69
  -4  -7  -6  333.87   52.79
  -4  -7  -6  190.78   63.09
   4   7   6  173.48   68.89
  -5  -7  -6  347.57   86.89
  -5  -7  -6  357.26   62.69
  -5  -7  -6  408.56   59.99
   5   7   6  542.85  133.39
  -6  -7  -6 2533.75  197.18
  -6  -7  -6 2385.16  201.28
   6   7   6 2826.12  341.27
  -7  -7  -6  622.14  122.89
  -7  -7  -6  699.43  100.39
  -7  -7  -6  783.92   92.89
   7   7   6  842.02  187.58
  -8  -7  -6  536.65   89.79
  -8  -7  -6  628.14  133.49
  -8  -7  -6  844.72  101.69
   8   7   6  691.33  182.78
  -9  -7  -6  230.18   90.99
  -9  -7  -6  276.97   65.29
   9   7   6  434.76   89.39
 -10  -7  -6  195.18   80.59
  10   7   6  107.19   55.59
 -11  -7  -6  -22.70   41.20
  11   7   6  -29.30   41.80
  -4   8   6 1250.77  275.47
  -3   8   6  993.30  221.38
  -2   8   6  -66.69   51.89
  -1   8   6   66.69   67.69
   0   8   6  143.39   76.09
  -1  -8  -6 1381.36  179.78
   1   8   6 1910.31  255.17
  -2  -8  -6  211.78   60.49
   2   8   6  279.47   95.89
  -3  -8  -6  407.36   86.29
  -3  -8  -6  449.36   69.39
   3   8   6  436.06  105.69
   3   8   6  325.17   95.69
  -4  -8  -6   97.09   51.99
  -4  -8  -6   80.79   30.80
  -4  -8  -6   67.79   28.80
   4   8   6  109.29   61.19
   4   8   6  162.58   70.09
  -5  -8  -6 1334.67  124.29
  -5  -8  -6 1256.17  134.29
  -5  -8  -6 1231.78  180.18
   5   8   6 1333.97  212.88
  -6  -8  -6   43.70   45.30
  -6  -8  -6  123.39   36.80
  -6  -8  -6   44.10   24.70
   6   8   6  126.19   82.19
  -7  -8  -6  101.99   35.30
  -7  -8  -6  133.19   49.10
  -7  -8  -6  214.98   80.39
   7   8   6  150.88   91.59
  -8  -8  -6   71.39   54.49
  -8  -8  -6  157.68   47.20
  -8  -8  -6  121.29   43.50
   8   8   6   68.99   85.79
  -9  -8  -6 1018.50  177.38
  -9  -8  -6  648.24  106.39
   9   8   6  879.71  150.88
   9   8   6 1157.28  247.68
 -10  -8  -6 1356.96  219.98
  10   8   6 1223.68  173.48
  -3   9   6   93.49   96.19
  -2   9   6  229.28  118.09
  -1   9   6 1211.38  234.78
   0   9   6 2070.29  290.87
   1   9   6  140.89   78.89
  -2  -9  -6    0.30   34.10
   2   9   6   41.10   60.69
   2   9   6   79.89   59.99
  -3  -9  -6  -20.60   28.60
  -3  -9  -6    8.70   22.10
   3   9   6  -34.20   30.20
   3   9   6    7.50   44.80
  -4  -9  -6  997.20  115.89
  -4  -9  -6  991.60  153.98
  -4  -9  -6 1060.39  121.09
   4   9   6  821.22  166.18
  -5  -9  -6  631.94  136.89
  -5  -9  -6 1017.30  115.79
  -5  -9  -6  648.44   96.69
   5   9   6  861.71  172.88
  -6  -9  -6  141.89   67.99
  -6  -9  -6  127.59   44.70
  -6  -9  -6  218.38   50.69
   6   9   6  243.48  109.09
  -7  -9  -6   61.59   38.50
  -7  -9  -6  115.29   38.90
   7   9   6  196.18  108.09
  -8  -9  -6  649.43  147.89
  -8  -9  -6  632.44   96.09
  -8  -9  -6 1038.10  128.99
   8   9   6  241.98  126.69
  -9  -9  -6  164.68   95.59
  -9  -9  -6  396.86   81.59
   9   9   6  332.37  129.69
 -10  -9  -6   31.20   57.49
  10   9   6  158.88   63.49
   2 -10  -6   53.19   54.09
  -2  10   6  -13.10   76.39
   1 -10  -6  200.08   67.69
  -1  10   6  253.17  120.19
   0 -10  -6  -18.20   28.20
   0  10   6    3.90   60.09
   1  10   6  912.21  180.58
   2  10   6   79.69   70.09
   2  10   6   34.00   59.99
  -3 -10  -6 2273.47  264.97
   3  10   6 2068.19  277.97
   3  10   6 2180.48  297.87
  -4 -10  -6  750.52  146.89
  -4 -10  -6  908.61  114.69
   4  10   6  885.51  186.38
  -5 -10  -6    2.90   21.90
  -5 -10  -6   46.80   49.50
   5  10   6   44.80   64.49
  -6 -10  -6  -58.39   25.90
  -6 -10  -6   49.60   35.50
   6  10   6   88.79   84.59
  -7 -10  -6  373.96   78.49
  -7 -10  -6  239.48   86.19
   7  10   6  417.26  144.99
  -8 -10  -6 1235.78  230.58
  -8 -10  -6 1920.21  197.58
   8  10   6 1791.72  313.47
  -9 -10  -6   86.39   70.89
  -9 -10  -6   12.10   35.50
   9  10   6  -42.70   94.49
   0  11   6  105.29   89.29
   1  11   6   -7.40   56.89
   1  11   6  142.19  107.69
   2  11   6   60.69   77.69
   2  11   6  161.68   81.69
   3  11   6  237.68  110.29
   3  11   6  203.58   88.69
  -4 -11  -6  275.97  104.79
  -4 -11  -6  229.88   56.89
   4  11   6  125.79   83.19
  -5 -11  -6  193.98   52.69
  -5 -11  -6   82.09   62.29
   5  11   6  102.69   91.79
  -6 -11  -6  689.23  110.69
  -6 -11  -6  714.83  160.68
   6  11   6 1238.48  248.98
  -7 -11  -6 1024.60  134.69
  -7 -11  -6  485.25  134.79
   7  11   6  977.80  222.98
  -8 -11  -6  219.38   66.69
  -8 -11  -6  119.99  100.09
   8  11   6  374.76  162.08
   2  12   6  276.07  130.39
   2  12   6  213.48  100.99
   3  12   6   56.79   69.49
   3  12   6   69.89   86.59
  -4 -12  -6  383.26   81.99
   4  12   6  258.47  115.39
  -5 -12  -6   22.30   56.29
  -5 -12  -6    2.90   24.00
   5  12   6  -81.59   79.69
  -6 -12  -6  406.96   86.39
  -6 -12  -6  463.85  129.69
   6  12   6  602.94  189.58
  -7 -12  -6    1.60   31.60
  -7 -12  -6   -6.40   51.19
   7  12   6   15.80   99.79
  -4 -11   7 1011.40  185.88
   3  11  -7 1541.25  258.97
  -3 -11   7 1013.60  187.28
   2  11  -7   91.99   85.49
   7  10  -7   42.10   59.39
  -7 -10   7  -32.20   55.79
  -6 -10   7  220.18   85.99
  -5 -10   7   70.39   65.59
  -4 -10   7   20.20   49.90
   3  10  -7  123.89   98.39
  -3 -10   7  171.98   78.69
   2  10  -7  886.71  195.18
  -2 -10   7 1124.09  186.68
   1  10  -7  259.47  106.19
   1  10  -7   73.79   82.59
  -1 -10   7  178.18   84.59
   0  10  -7 1734.73  274.37
   0  10  -7 2215.68  320.57
   0 -10   7 1731.33  238.68
  -1  10  -7  551.64  175.08
   1 -10   7  327.97  109.49
   8   9  -7  896.31  157.58
   7   9  -7 1305.47  201.28
  -7  -9   7  995.30  184.38
  -6  -9   7   66.29   59.99
  -5  -9   7 1516.35  230.38
  -4  -9   7   37.50   50.09
   3   9  -7   22.40   52.89
  -3  -9   7  -14.30   39.40
  -3  -9   7   54.89   47.50
   2   9  -7  312.57  120.79
   2   9  -7  281.17   94.79
  -2  -9   7  473.45  110.19
  -2  -9   7  453.75  110.19
   1   9  -7   -3.30   47.20
   1   9  -7   50.79   71.29
  -1  -9   7    6.80   49.40
   0   9  -7   -9.40   61.99
   0  -9   7   -1.40   43.40
  -1   9  -7  996.40  215.28
   1  -9   7  928.21  167.28
  -2   9  -7   78.19  102.59
   2  -9   7  191.38   74.39
   8   8  -7   22.70   45.70
   7   8  -7   50.39   55.49
  -7  -8   7   78.29   69.09
  -6  -8   7  -21.30   46.60
  -5  -8   7  516.85  121.89
  -4  -8   7 2165.18  235.58
  -4  -8   7 2052.29  255.67
  -4  -8   7 2875.31  248.78
   3   8  -7  105.29   53.49
   3   8  -7  195.38   81.19
  -3  -8   7  121.49   61.49
  -3  -8   7   86.89   61.99
   2   8  -7 1617.64  209.08
   2   8  -7 1774.52  248.58
  -2  -8   7 1473.15  205.68
  -2  -8   7 1373.46  189.98
   1   8  -7  672.53  135.79
   1   8  -7  374.96  120.59
  -1  -8   7  567.14  121.99
   0   8  -7  148.19   93.09
   0  -8   7   54.99   52.79
  -1   8  -7  401.06  126.39
   1  -8   7  273.27   86.49
  -2   8  -7   20.20   83.39
   2  -8   7  -29.10   29.00
  -3   8  -7   23.50   90.09
   3  -8   7   59.79   47.10
   4  -8   7  401.36  114.29
   9   7  -7 1779.42  222.58
  -9  -7   7 1225.18  243.18
   8   7  -7  -38.00   35.10
   7   7  -7  504.45  104.79
  -7  -7   7  261.37   91.09
   6   7  -7   76.49   54.19
  -6  -7   7  212.38   76.49
  -5  -7   7   98.19   59.59
  -4  -7   7   71.89   52.49
   3   7  -7  -21.20   31.60
   3   7  -7   22.70   29.40
  -3  -7   7   23.70   39.40
  -3  -7   7   39.80   48.90
   2   7  -7   95.29   63.49
   2   7  -7   47.90   40.10
  -2  -7   7  151.38   64.09
  -2  -7   7  102.09   47.40
   1   7  -7 2766.12  286.67
   1   7  -7 2749.23  267.07
  -1  -7   7 3707.63  302.57
  -1  -7   7 2651.83  267.07
   0   7  -7 2715.13  324.57
   0  -7   7 2355.16  236.88
  -1   7  -7  532.35  147.19
   1  -7   7  499.15  109.19
  -2   7  -7  886.61  187.38
   2  -7   7  744.93  133.59
  -3   7  -7  133.39   97.39
   3  -7   7  198.88   75.99
   4  -7   7  142.59   67.39
   5  -7   7  168.68   77.39
   9   6  -7  -13.10   50.59
  -9  -6   7  208.78  101.89
   8   6  -7   80.99   51.59
  -8  -6   7   61.29   62.49
   7   6  -7  106.59   53.09
  -7  -6   7  191.88   83.89
   6   6  -7 3000.60  258.37
  -6  -6   7 2933.81  331.77
  -5  -6   7 1531.65  214.48
   4   6  -7  539.25   84.49
  -4  -6   7  395.76   93.69
   3   6  -7  175.98   47.30
   3   6  -7  104.39   52.09
  -3  -6   7   83.89   50.49
  -3  -6   7   61.69   43.50
   2   6  -7  150.78   60.99
   2   6  -7  234.78   59.59
  -2  -6   7  206.88   73.29
  -2  -6   7  157.88   54.39
   1   6  -7   54.09   51.89
  -1  -6   7  135.69   58.49
  -1  -6   7  110.19   46.40
   0   6  -7   54.79   63.59
   0  -6   7   53.19   44.60
  -1   6  -7    0.90   48.50
   1  -6   7   47.00   38.20
  -2   6  -7  973.40  145.49
  -2   6  -7  601.34  145.89
   2  -6   7  955.70  145.39
  -3   6  -7 2676.43  248.08
  -3   6  -7 2763.12  349.96
  -3   6  -7 2921.51  267.07
   3  -6   7 2313.87  238.68
  -4   6  -7   18.50   52.79
  -4   6  -7   63.39   46.80
   4  -6   7   71.89   75.79
   4  -6   7   34.00   44.30
  -5   6  -7  615.14  153.78
  -5   6  -7  468.85  107.09
   5  -6   7  547.65  118.09
   5  -6   7  505.35  150.08
  -6   6  -7  247.38  110.49
  -6   6  -7  166.08   72.89
   6  -6   7  140.09   99.99
   6  -6   7  171.48   79.09
  -9  -5   7  174.68   98.09
   8   5  -7  193.48   72.49
  -8  -5   7  412.96  126.79
   7   5  -7  794.02  117.59
  -7  -5   7  585.04  122.99
  -7  -5   7  728.53  157.58
   6   5  -7  285.47   65.39
  -6  -5   7  145.69   62.79
  -5  -5   7  151.18   68.09
   4   5  -7  110.29   32.30
  -4  -5   7   92.99   54.29
   3   5  -7 3787.42  285.47
   3   5  -7 3941.71  310.57
  -3  -5   7 3604.64  320.77
  -3  -5   7 4270.57  332.67
   2   5  -7 4472.15  328.17
   2   5  -7 4231.28  353.56
  -2  -5   7 4373.26  362.36
  -2  -5   7 4562.84  356.36
   1   5  -7   35.20   38.40
  -1  -5   7   32.70   27.40
  -1  -5   7    1.50   29.10
   0   5  -7  301.67   86.69
   0   5  -7  152.38   59.19
   0  -5   7  124.89   49.99
  -1   5  -7  141.29   51.09
  -1   5  -7  189.38   40.10
  -1   5  -7   87.79   56.09
   1  -5   7  156.48   54.99
  -2   5  -7   50.29   54.39
  -2   5  -7   18.60   29.90
  -2   5  -7   10.00   30.30
  -2   5  -7   14.50   17.80
   2  -5   7   37.90   33.40
  -3   5  -7   -4.10   23.90
  -3   5  -7   79.49   67.09
  -3   5  -7   15.10   39.50
   3  -5   7   -5.60   60.59
   3  -5   7   44.80   39.30
  -4   5  -7   58.19   42.80
  -4   5  -7  115.09   76.49
   4  -5   7   89.89   48.00
   4  -5   7  144.89   77.89
  -5   5  -7  120.59   76.09
  -5   5  -7   61.39   45.60
   5  -5   7  127.59   59.09
   5  -5   7   20.20   63.89
  -6   5  -7 1166.78  218.78
  -6   5  -7 1364.16  184.28
   6  -5   7 1344.17  223.78
   6  -5   7 1836.62  223.78
  -7   5  -7  164.28   70.29
  -7   5  -7  374.66  143.29
   7  -5   7  190.18  102.79
  -9  -4   7  233.68  102.19
   8   4  -7 1136.09  165.88
  -8  -4   7 1601.44  264.87
   7   4  -7  849.61  121.69
  -7  -4   7  539.55  105.99
  -7  -4   7  542.65  133.79
   6   4  -7  353.66   70.09
  -6  -4   7  278.47   91.29
  -6  -4   7  233.28   82.79
   5   4  -7   -5.50   22.20
  -5  -4   7   17.90   33.20
  -4  -4   7 1381.06  187.88
   3   4  -7  109.89   27.90
  -3  -4   7  150.38   56.69
  -3  -4   7  116.69   54.69
   2   4  -7  179.98   50.99
   2   4  -7  188.18   35.80
  -2  -4   7  113.29   43.90
  -2  -4   7   89.39   46.20
   1   4  -7  847.72  118.09
   1   4  -7  398.96   71.79
   1   4  -7  844.22  117.49
  -1  -4   7  883.81  134.19
  -1  -4   7  634.34  103.39
   0   4  -7 1128.99  153.48
   0   4  -7 1178.08  107.29
   0   4  -7  900.41  126.69
   0  -4   7 1071.09  147.89
  -1   4  -7 6642.34  516.15
  -1   4  -7 6950.60  487.95
  -1   4  -7 6350.36  465.35
  -1   4  -7 6551.54  464.55
   1  -4   7 6784.22  498.65
  -2   4  -7  578.74   95.59
  -2   4  -7  615.14   73.49
  -2   4  -7  742.63  137.79
  -2   4  -7  716.23  107.39
   2  -4   7  553.14   98.19
  -3   4  -7  371.06   90.59
  -3   4  -7  298.27   68.89
  -3   4  -7  277.27   42.60
  -3   4  -7  307.77   94.29
  -3   4  -7  403.96   57.99
   3  -4   7  134.49   76.69
   3  -4   7  325.17   74.29
  -4   4  -7   54.79   36.20
  -4   4  -7   11.10   42.50
  -4   4  -7   27.80   56.79
   4  -4   7  -16.90   44.00
   4  -4   7   80.79   42.10
  -5   4  -7  -18.40   23.50
  -5   4  -7   89.39   60.59
   5  -4   7  120.39   72.39
  -6   4  -7  440.96   95.69
  -6   4  -7  125.49   87.49
   6  -4   7  208.08   88.69
  -7   4  -7   28.80   82.59
  -7   4  -7   37.50   35.70
   7  -4   7    6.20   52.79
  -9  -3   7  858.61  207.88
  -8  -3   7  360.16  126.59
   7   3  -7  888.11  127.59
  -7  -3   7  894.11  124.89
  -7  -3   7 1232.28  214.68
   6   3  -7 1443.26  151.98
  -6  -3   7 1209.68  170.88
  -6  -3   7 1505.25  223.78
   5   3  -7  691.73   96.19
  -5  -3   7 1141.49  173.88
  -5  -3   7  846.42  140.29
  -4  -3   7 3211.78  282.07
  -4  -3   7 2992.00  277.67
  -3  -3   7  131.49   57.79
   2   3  -7   81.89   30.30
   2   3  -7  115.09   42.50
   2   3  -7   93.59   33.00
  -2  -3   7   70.99   41.40
  -2  -3   7  186.58   58.79
   1   3  -7  740.23   94.69
   1   3  -7  788.72  109.69
   1   3  -7  778.32  104.89
  -1  -3   7  548.05  104.29
  -1  -3   7  843.12  116.99
   0   3  -7 1207.48  139.29
   0   3  -7 1160.48  147.19
   0   3  -7 1153.28  109.49
   0  -3   7 1089.79  148.19
  -1   3  -7  118.79   39.90
  -1   3  -7  126.39   53.79
  -1   3  -7  116.49   30.90
  -1   3  -7  151.48   35.00
   1  -3   7   88.29   45.60
  -2   3  -7  929.01  148.69
  -2   3  -7 1106.69  121.99
  -2   3  -7  928.21   88.29
  -2   3  -7 1139.59  110.09
  -2   3  -7  990.10   73.79
   2  -3   7  855.81  148.49
   2  -3   7 1021.60  135.19
  -3   3  -7    0.40   33.70
  -3   3  -7   61.99   18.00
  -3   3  -7   69.79   32.30
  -3   3  -7   35.20   34.10
   3  -3   7  -24.70   32.50
   3  -3   7   69.99   37.80
  -4   3  -7 2246.98  266.47
  -4   3  -7 2472.85  183.48
  -4   3  -7 1788.92  135.89
  -4   3  -7 2081.19  201.28
   4  -3   7 1628.44  223.58
  -5   3  -7 2540.45  296.07
  -5   3  -7 2411.36  212.78
   5  -3   7 2401.36  280.87
  -6   3  -7    8.80   55.09
  -6   3  -7  -26.70   20.90
   6  -3   7  -39.20   35.70
  -7   3  -7   -8.30   66.69
  -7   3  -7   51.69   38.80
   7  -3   7   35.50   67.89
  -8   3  -7   53.09   44.80
  -8   3  -7  -70.69   64.69
   8  -3   7   75.59   88.49
   9   2  -7  124.29   91.89
  -9  -2   7  162.38  112.89
  -8  -2   7  533.05  153.98
   7   2  -7  385.36   77.99
  -7  -2   7  438.66  132.29
   6   2  -7  787.72  103.89
  -6  -2   7  764.92  158.08
  -6  -2   7 1009.90  127.09
   5   2  -7  944.91  106.79
  -5  -2   7  836.52  128.69
  -5  -2   7 1085.79  175.38
   4   2  -7  999.10   97.19
  -4  -2   7 1340.27  186.28
  -4  -2   7 1269.57  168.28
  -3  -2   7 2821.42  271.77
  -3  -2   7 3909.71  296.77
   2   2  -7   22.40   26.60
   2   2  -7   42.20   21.00
   2   2  -7   32.40   15.00
  -2  -2   7  -29.10   24.60
  -2  -2   7   53.09   37.70
   1   2  -7 4451.25  328.67
   1   2  -7 4327.27  317.27
  -1  -2   7 4092.89  343.27
  -1  -2   7 4441.36  344.17
   0   2  -7 1101.09  120.29
   0   2  -7 1090.29  110.99
   0   2  -7 1010.70  114.89
   0  -2   7 1125.09  147.69
  -1   2  -7  266.67   63.19
  -1   2  -7   94.99   30.50
  -1   2  -7  135.29   38.10
  -1   2  -7  225.78   38.50
  -1   2  -7   95.59   31.70
   1  -2   7  246.28   62.99
  -2   2  -7  204.58   39.10
  -2   2  -7  291.77   50.49
  -2   2  -7  280.67   50.09
  -2   2  -7  288.27   74.19
  -2   2  -7  260.27   36.40
  -2   2  -7  296.87   55.99
   2  -2   7  349.07   82.69
   2  -2   7  188.38   70.49
  -3   2  -7 1096.09  141.59
  -3   2  -7  921.81  109.89
  -3   2  -7 1179.68   90.09
  -3   2  -7 1076.49  166.98
   3  -2   7 1140.09  155.98
  -4   2  -7   33.00   40.50
  -4   2  -7   -9.40   14.80
  -4   2  -7   11.70    7.10
  -4   2  -7  -37.80   31.90
   4  -2   7   -3.00   32.00
  -5   2  -7  527.05   84.79
  -5   2  -7  357.06  102.89
   5  -2   7  391.36   98.99
  -6   2  -7  325.37  107.19
  -6   2  -7  355.66   70.69
   6  -2   7  280.67   88.79
  -7   2  -7  933.21  131.69
  -7   2  -7 1173.98  205.78
   7  -2   7  682.03  146.49
  -8   2  -7 2222.68  242.58
  -8   2  -7 2198.88  321.97
   8  -2   7 1972.80  276.67
  -9   2  -7  -11.20   73.79
  -9   2  -7  -45.40   35.20
   9  -2   7   58.29   70.79
   9   1  -7  303.47  107.09
  -9  -1   7  874.51  222.88
  -8  -1   7 1037.10  236.08
  -7  -1   7  -23.70   49.20
   6   1  -7  919.81  110.09
  -6  -1   7 1115.49  191.98
   5   1  -7  417.56   59.69
  -5  -1   7  185.18   82.69
   4   1  -7 1273.17  103.29
  -4  -1   7 1181.88  145.89
  -4  -1   7 1111.59  178.58
   3   1  -7  291.67   40.60
  -3  -1   7  353.76   90.79
  -3  -1   7  168.58   58.09
  -3  -1   7  302.47   73.09
   2   1  -7 1149.69  116.49
   2   1  -7  489.85   80.99
  -2  -1   7 1226.78  147.59
  -2  -1   7  693.83  109.69
   1   1  -7 1549.64  132.59
   1   1  -7 1452.75  119.69
   1   1  -7 1508.95  119.19
   1   1  -7 1688.73  137.19
  -1  -1   7 1514.85  179.08
  -1  -1   7 1724.43  159.98
   0   1  -7 4154.98  288.47
   0   1  -7 3788.32  276.57
   0   1  -7 3850.01  318.27
   0   1  -7 3837.42  285.57
   0   1  -7 3801.72  285.97
   0  -1   7 3911.91  314.27
  -1   1  -7 2281.37  171.48
  -1   1  -7 2341.07  167.78
  -1   1  -7 2326.27  195.98
  -1   1  -7 2230.28  172.18
  -1   1  -7 2152.48  174.18
  -2   1  -7 2215.98  156.88
  -2   1  -7 2012.30  171.88
  -2   1  -7 1821.62  184.08
  -2   1  -7 2022.00  155.28
  -2   1  -7 2041.30  154.88
  -3   1  -7 2705.63  206.68
  -3   1  -7 2933.71  237.58
  -3   1  -7 2968.90  254.47
  -3   1  -7 2658.13  205.88
  -4   1  -7   22.20   35.10
  -4   1  -7   19.20   12.20
  -4   1  -7   24.40   17.70
  -4   1  -7   59.49   23.50
  -4   1  -7   33.60   10.20
  -4   1  -7    2.90   34.90
  -4   1  -7   22.00    8.80
   4  -1   7  -34.90   32.00
  -5   1  -7  -33.90   35.20
  -5   1  -7   31.40   22.80
   5  -1   7   43.00   38.80
  -6   1  -7  535.35   86.69
  -6   1  -7  333.17  110.39
   6  -1   7  393.36   98.79
  -7   1  -7  -13.60   58.59
  -7   1  -7    8.10   25.30
   7  -1   7  -10.10   38.30
  -8   1  -7   84.19   88.39
  -8   1  -7   86.39   43.30
   8  -1   7   68.59   59.59
  -9   1  -7  283.37   81.89
  -9   1  -7  390.06  151.78
   9  -1   7  425.96  123.39
   9   0  -7  705.33  157.78
   8   0  -7  -32.60   49.20
  -8   0   7   13.60   78.39
   7   0  -7   88.09   42.70
  -7   0   7  265.77  119.69
   6   0  -7  275.47   61.59
  -6   0   7  228.98  103.19
   5   0  -7 2863.71  228.78
   5   0  -7 2690.93  210.68
  -5   0   7 2651.23  332.37
   4   0  -7  397.76   66.49
   4   0  -7  454.95   54.39
  -4   0   7  387.76  104.29
   3   0  -7 1096.59  108.29
   3   0  -7 1164.28   85.69
  -3   0   7 1281.07  188.28
  -3   0   7  840.42  128.09
  -3   0   7 1165.38  133.59
   2   0  -7  177.38   40.30
   2   0  -7  175.28   44.50
  -2   0   7  138.99   45.50
  -2   0   7  195.18   51.29
  -2   0   7  179.78   66.09
   1   0  -7 2575.44  188.18
   1   0  -7 2543.35  202.28
   1   0  -7 2049.70  186.48
   1   0  -7 2616.44  188.68
  -1   0   7 2545.35  212.78
   0   0  -7   32.70   17.10
   0   0  -7   32.10   16.60
   0   0  -7   16.90   38.20
   0   0  -7   25.20   19.20
   0   0  -7   64.09   21.80
   0   0  -7   10.70   15.40
   0   0  -7   -7.50   16.50
  -1   0  -7  168.18   38.10
  -1   0  -7  156.08   28.90
  -1   0  -7  164.28   41.40
  -1   0  -7  114.89   37.20
  -1   0  -7  201.78   30.90
  -2   0  -7  217.68   55.79
  -2   0  -7  216.88   28.60
  -2   0  -7  193.28   27.90
  -2   0  -7  187.38   51.79
  -3   0  -7 1706.73  165.28
  -3   0  -7 1490.95  130.19
  -3   0  -7 1616.24  121.09
  -3   0  -7 1311.07  169.98
  -3   0  -7 1692.63  122.09
  -4   0  -7 4001.70  317.07
  -4   0  -7 3966.00  315.97
  -4   0  -7 3680.53  264.17
  -4   0  -7 3662.23  263.07
  -4   0  -7 3496.75  258.47
  -4   0  -7 3533.65  255.97
  -4   0  -7 3577.84  246.88
  -5   0  -7  102.09   32.40
  -5   0  -7   74.39   22.50
  -5   0  -7  106.39   12.00
  -5   0  -7   72.49   26.70
  -5   0  -7  102.39   59.69
  -6   0  -7 2404.16  193.08
  -6   0  -7 2042.40  276.17
  -7   0  -7  215.68  100.69
  -7   0  -7  236.38   56.69
   7   0   7  206.08   74.19
  -8   0  -7  -25.70   60.39
  -8   0  -7   22.30   26.60
   8   0   7   15.40   45.40
  -9   0  -7  243.68   82.29
  -9   0  -7  161.68   95.79
   9   0   7  146.89   70.59
 -10   0  -7   69.39   56.99
 -10   0  -7  111.89   98.09
  10   0   7   59.29   72.09
   8  -1  -7   65.09   62.39
   8  -1  -7  204.28   64.19
  -8   1   7   72.19   77.99
   7  -1  -7  641.24  129.09
   7  -1  -7  583.34  100.79
  -7   1   7  405.96  138.79
   6  -1  -7 2309.07  205.18
  -6   1   7 2381.36  334.27
   5  -1  -7  305.17   62.09
  -5   1   7  187.88   94.09
   4  -1  -7  447.86   69.89
  -4   1   7  454.25  125.29
   3  -1  -7  491.35   71.59
  -3   1   7  530.15  122.89
   2  -1  -7 2045.10  166.68
   2  -1  -7 2016.30  167.38
  -2   1   7 2193.38  219.98
   1  -1  -7 4581.24  333.87
   1  -1  -7 4527.35  363.86
   1  -1  -7 4847.92  333.87
   1  -1  -7 4664.93  313.57
   1  -1  -7 4616.54  342.37
  -1   1   7 4897.81  347.37
  -1   1   7 4922.41  388.36
   0  -1  -7  140.19   26.10
   0  -1  -7   91.69   28.60
   0  -1  -7  115.19   36.60
   0  -1  -7  151.28   27.10
   0  -1  -7  112.19   24.40
   0  -1  -7  142.49   55.29
  -1  -1  -7 1749.03  177.78
  -1  -1  -7 1793.62  126.09
  -1  -1  -7 1781.72  125.59
  -2  -1  -7  799.22   56.49
  -2  -1  -7  817.52   56.99
  -3  -1  -7 1054.69   79.89
  -3  -1  -7 1013.50   79.69
  -3  -1  -7 1188.88  153.08
  -3  -1  -7 1050.79   86.69
  -4  -1  -7  664.13   66.09
  -4  -1  -7 1212.98  164.38
  -4  -1  -7  778.62   60.99
  -4  -1  -7  699.63   68.29
  -5  -1  -7  212.88   26.40
  -5  -1  -7  225.08   24.10
  -5  -1  -7  360.46  100.09
  -5  -1  -7  169.08   68.09
  -5  -1  -7  201.68   42.90
  -5  -1  -7  253.97   47.30
  -6  -1  -7  409.26   71.59
  -6  -1  -7  762.32  152.38
   6   1   7  538.45   98.49
  -7  -1  -7 2422.96  311.07
  -7  -1  -7 2206.28  192.18
   7   1   7 2115.99  236.18
  -8  -1  -7  332.07   75.29
  -8  -1  -7  216.18   95.69
   8   1   7  358.96   92.59
  -9  -1  -7  920.41  212.08
  -9  -1  -7  908.71  142.29
   9   1   7 1220.78  223.28
 -10  -1  -7  554.84  184.68
 -10  -1  -7  308.27   87.49
  10   1   7  661.83  152.58
   8  -2  -7  -18.50   47.60
   8  -2  -7   13.90   35.50
  -8   2   7  -19.60   56.49
   7  -2  -7  582.34   98.39
   7  -2  -7  242.58   86.49
  -7   2   7  454.65  128.99
   6  -2  -7  385.86   89.19
   6  -2  -7  267.67   64.89
  -6   2   7  290.97  105.39
   5  -2  -7  399.86   73.19
  -5   2   7  520.85  133.39
   4  -2  -7   32.50   21.80
  -4   2   7   48.10   48.50
   3  -2  -7 3184.58  258.47
   3  -2  -7 3216.28  234.58
  -3   2   7 2541.05  278.17
   2  -2  -7 1927.71  153.68
   2  -2  -7 2019.40  159.68
   2  -2  -7 1740.03  170.08
   2  -2  -7 1835.82  144.99
  -2   2   7 1952.20  241.88
   1  -2  -7  137.99   33.80
   1  -2  -7  139.99   41.80
   1  -2  -7  156.78   34.20
   1  -2  -7  147.69   30.30
   1  -2  -7  134.79   32.90
  -1   2   7  133.29   59.19
   0  -2  -7  191.48   40.90
   0  -2  -7  255.77   36.90
   0  -2  -7  194.38   34.40
   0  -2  -7  212.38   35.50
   0  -2  -7  235.88   26.20
   0  -2  -7  315.17   65.79
  -1  -2  -7 2168.58  178.48
  -1  -2  -7 2120.39  152.28
  -1  -2  -7 2176.68  152.48
  -1  -2  -7 2182.68  197.58
  -1  -2  -7 2180.78  157.28
  -2  -2  -7 4954.00  409.36
  -2  -2  -7 5358.56  375.46
  -2  -2  -7 5391.56  356.16
  -2  -2  -7 5537.75  356.16
  -3  -2  -7   86.29   20.30
  -3  -2  -7   88.09   18.20
  -3  -2  -7  109.99   19.50
  -4  -2  -7 1914.71  149.19
  -4  -2  -7 2120.39  148.39
  -4  -2  -7 1987.40  203.08
  -4  -2  -7 1991.90  144.69
  -4  -2  -7 2004.70  151.58
  -5  -2  -7   23.80    9.50
  -5  -2  -7   23.50   17.60
  -5  -2  -7  -32.70   32.60
  -5  -2  -7   22.00   11.50
  -5  -2  -7  -12.40   14.60
  -5  -2  -7    2.50   17.70
  -6  -2  -7  296.47  100.49
  -6  -2  -7  237.38   25.60
  -6  -2  -7  298.67   63.19
  -6  -2  -7  266.37   35.20
  -6  -2  -7  242.18   49.20
   6   2   7  263.77   62.59
  -7  -2  -7  111.19   39.30
  -7  -2  -7  -25.30   46.20
   7   2   7   20.80   33.90
  -8  -2  -7  129.69   76.79
  -8  -2  -7   79.19   40.10
   8   2   7  147.09   60.79
  -9  -2  -7   59.99   79.49
  -9  -2  -7   89.89   49.10
   9   2   7  175.28   73.19
 -10  -2  -7  744.33  196.18
 -10  -2  -7  978.90  150.48
  10   2   7 1182.98  190.18
   8  -3  -7 1281.57  211.58
   7  -3  -7  517.05  120.09
   7  -3  -7  424.66   89.19
  -7   3   7  347.47  125.39
   6  -3  -7   32.60   34.80
   6  -3  -7   11.10   37.00
  -6   3   7   95.59   70.49
  -6   3   7  -17.00   45.70
   5  -3  -7  188.38   50.59
   5  -3  -7  262.87   72.19
  -5   3   7  261.07   92.29
  -5   3   7  170.08   72.59
   4  -3  -7  258.67   56.39
   4  -3  -7  357.16   83.09
   4  -3  -7  389.36   74.89
  -4   3   7  459.95  111.39
  -4   3   7  331.27   92.49
   3  -3  -7 1547.15  151.08
   3  -3  -7 1227.18  121.59
  -3   3   7 1525.35  204.18
  -3   3   7 1716.33  212.08
   2  -3  -7   62.09   28.70
   2  -3  -7   27.30   19.70
   2  -3  -7   51.79   29.00
  -2   3   7   80.19   47.00
   1  -3  -7  677.43   86.29
   1  -3  -7  934.21   78.89
   1  -3  -7  755.72  102.69
  -1   3   7  821.72  132.39
   0  -3  -7 2324.87  177.38
   0  -3  -7 2226.48  172.28
   0  -3  -7 2312.87  191.98
   0  -3  -7 2210.08  174.88
   0   3   7 2687.23  212.18
  -1  -3  -7 3118.59  209.38
  -1  -3  -7 2792.42  203.68
  -1  -3  -7 2771.02  215.88
  -1  -3  -7 3397.56  235.88
  -1  -3  -7 2933.31  218.38
  -1  -3  -7 2795.02  214.38
  -1  -3  -7 2688.73  206.28
  -2  -3  -7  156.78   33.20
  -2  -3  -7  269.37   33.10
  -2  -3  -7  260.77   33.30
  -2  -3  -7  168.78   38.40
  -2  -3  -7  173.48   50.39
  -2  -3  -7  164.88   33.10
  -3  -3  -7   91.79   23.20
  -3  -3  -7   18.20   15.50
  -3  -3  -7   17.40   12.50
  -3  -3  -7   82.29   35.90
  -3  -3  -7   31.70   15.50
  -4  -3  -7  274.67   45.50
  -4  -3  -7  234.08   42.00
  -4  -3  -7  295.67   36.90
  -4  -3  -7  242.48   36.80
  -5  -3  -7 4223.38  307.87
  -5  -3  -7 4612.74  376.46
  -5  -3  -7 4289.37  310.87
  -5  -3  -7 3789.32  304.47
  -5  -3  -7 4552.54  297.27
  -5  -3  -7 4102.49  289.57
  -6  -3  -7 1721.93  244.18
  -6  -3  -7 1675.03  126.69
  -6  -3  -7 1563.24  118.09
  -6  -3  -7 1491.75  140.59
  -6  -3  -7 1657.13  142.99
  -7  -3  -7  439.56   74.09
  -7  -3  -7  268.37   61.49
  -7  -3  -7  419.36   52.99
  -7  -3  -7  550.64  143.59
   7   3   7  436.96   83.69
  -8  -3  -7  275.67   68.49
  -8  -3  -7  359.26  123.69
   8   3   7  294.87   78.09
  -9  -3  -7  159.18   58.59
  -9  -3  -7  318.47  116.29
   9   3   7  113.39   59.99
 -10  -3  -7  -35.80   62.99
 -10  -3  -7  -47.70   26.50
  10   3   7   14.40   48.40
   7  -4  -7  394.16   86.99
  -7   4   7  429.36  141.79
   6  -4  -7   28.00   36.70
   6  -4  -7   89.99   60.09
  -6   4   7   73.39   66.49
   5  -4  -7 1521.95  209.28
   5  -4  -7 1423.56  175.18
   5  -4  -7 1704.33  156.58
  -5   4   7 1415.16  190.68
  -5   4   7 1502.95  239.28
   4  -4  -7 1989.70  183.38
   4  -4  -7 2215.68  211.58
   4  -4  -7 2136.69  180.48
  -4   4   7 2076.59  281.87
  -4   4   7 1999.10  202.98
   3  -4  -7  169.88   40.60
   3  -4  -7  166.58   58.29
   3  -4  -7  105.29   35.90
  -3   4   7  148.79   70.09
  -3   4   7  131.99   58.39
   2  -4  -7  345.67   53.49
   2  -4  -7  376.96   76.89
   2  -4  -7  265.97   47.90
  -2   4   7  280.97   92.09
  -2   4   7  294.07   73.29
   1  -4  -7    6.50   11.20
   1  -4  -7   12.30   20.40
   1  -4  -7   66.39   29.70
  -1   4   7   16.10   25.80
  -1   4   7   80.49   55.29
   0  -4  -7 2396.06  173.98
   0  -4  -7 2338.77  188.28
   0  -4  -7 2265.27  173.58
   0  -4  -7 2510.75  198.28
   0   4   7 2682.23  246.98
   0   4   7 2349.76  206.38
  -1  -4  -7  358.86   50.89
  -1  -4  -7  378.16   53.99
  -1  -4  -7  434.86   40.80
  -1  -4  -7  399.56   56.99
  -1  -4  -7  368.06   36.70
  -1  -4  -7  382.96   60.39
   1   4   7  331.57   70.09
  -2  -4  -7  420.36   57.99
  -2  -4  -7  602.34   57.69
  -2  -4  -7  527.45   65.49
  -2  -4  -7  561.64   66.79
  -2  -4  -7  607.44   53.89
  -2  -4  -7  523.45   70.09
  -2  -4  -7  649.43   71.89
  -3  -4  -7  314.97   50.19
  -3  -4  -7  390.36   53.59
  -3  -4  -7  235.18   40.20
  -3  -4  -7  274.97   50.99
  -3  -4  -7  340.87   45.50
  -4  -4  -7 3416.96  275.57
  -4  -4  -7 3818.72  258.07
  -4  -4  -7 3269.97  263.27
  -4  -4  -7 3626.44  252.87
  -4  -4  -7 3626.64  270.27
  -5  -4  -7  297.37   57.19
  -5  -4  -7  274.37   60.59
  -5  -4  -7  265.37   43.10
  -5  -4  -7  264.37   38.50
  -5  -4  -7  334.77   94.19
  -6  -4  -7   25.40   25.40
  -6  -4  -7    6.80   11.10
  -6  -4  -7    4.60   16.40
  -6  -4  -7  -26.00   31.20
  -6  -4  -7  -13.70    8.10
   6   4   7   48.10   56.59
  -7  -4  -7   10.80   49.20
  -7  -4  -7   10.70   17.70
  -7  -4  -7    8.50   20.10
  -7  -4  -7   26.10   26.50
  -7  -4  -7   16.20   14.30
  -8  -4  -7 1369.66  239.48
  -8  -4  -7 1443.76  172.68
   8   4   7 1300.07  172.38
  -9  -4  -7 2394.76  224.58
   9   4   7 2404.86  265.67
 -10  -4  -7  -22.20   30.50
  10   4   7  -65.59   37.80
 -11  -4  -7  230.38   81.19
  11   4   7  147.79   81.09
  -6   5   7  -23.10   70.09
   5  -5  -7  130.59   46.50
  -5   5   7  136.39   56.89
  -5   5   7  132.49   87.29
   4  -5  -7  510.65  107.39
   4  -5  -7  254.07   66.69
   4  -5  -7  530.35   83.79
  -4   5   7  560.54  156.28
  -4   5   7  537.75   99.99
   3  -5  -7 1377.46  180.88
   3  -5  -7 1369.66  132.39
   3  -5  -7 1455.95  132.49
  -3   5   7 1427.16  223.78
  -3   5   7 1599.14  156.68
   2  -5  -7  801.32   90.09
   2  -5  -7  753.72   88.09
   2  -5  -7  686.73  112.39
  -2   5   7  798.32  160.48
  -2   5   7  889.91  124.49
   1  -5  -7 4016.10  313.07
   1  -5  -7 3962.80  275.37
   1  -5  -7 3779.02  283.07
   1  -5  -7 3927.01  308.97
  -1   5   7 4269.47  373.36
  -1   5   7 4177.18  320.57
   0  -5  -7  482.05   76.59
   0  -5  -7  464.65   52.49
   0  -5  -7  411.66   73.79
   0   5   7  418.56  112.39
  -1  -5  -7  338.47   59.99
  -1  -5  -7  221.88   46.80
  -1  -5  -7  257.67   31.30
   1   5   7  272.37   90.89
  -2  -5  -7   80.49   24.30
  -2  -5  -7  157.28   34.50
  -2  -5  -7   20.20   16.30
  -2  -5  -7   34.70   20.70
  -2  -5  -7   69.99   26.80
  -2  -5  -7   65.49   12.30
   2   5   7   27.90   46.30
  -3  -5  -7 2075.89  160.78
  -3  -5  -7 2128.99  146.19
  -3  -5  -7 1870.11  166.88
  -3  -5  -7 2072.99  167.18
  -3  -5  -7 1983.80  152.38
   3   5   7 1713.13  243.68
  -4  -5  -7 1444.06  114.49
  -4  -5  -7 1646.64  143.29
  -4  -5  -7 1608.64  122.89
  -4  -5  -7 1419.26  123.79
  -4  -5  -7 1403.36  135.99
  -4  -5  -7 1541.85  109.69
  -5  -5  -7  211.48   37.90
  -5  -5  -7  210.98   39.00
  -5  -5  -7  246.18   31.00
  -5  -5  -7  188.28   39.00
  -5  -5  -7  198.28   56.79
  -6  -5  -7   65.79   21.80
  -6  -5  -7  101.69   30.10
  -6  -5  -7  102.99   42.20
  -6  -5  -7   42.50   18.90
   6   5   7   30.40   57.69
  -7  -5  -7 1007.30   91.19
  -7  -5  -7 1124.49  100.99
  -7  -5  -7  866.41  131.49
   7   5   7  986.60  210.68
  -8  -5  -7  754.02   91.39
  -8  -5  -7  594.04  104.69
   8   5   7  582.94  100.89
  -9  -5  -7   38.30   43.80
   9   5   7   52.19   46.80
 -10  -5  -7  -21.50   28.90
  10   5   7   -7.20   41.20
 -11  -5  -7  307.87   94.39
  11   5   7  205.08   94.69
  -6   6   7  612.94  187.98
  -5   6   7  -73.99   65.49
  -4   6   7  130.29   97.49
   3  -6  -7  147.79   42.20
   3  -6  -7  286.87   79.69
  -3   6   7  116.89   86.59
   2  -6  -7  313.67   75.09
   2  -6  -7  278.37   52.79
  -2   6   7  319.17  125.89
   1  -6  -7   21.60   17.30
   1  -6  -7   79.49   40.50
   1  -6  -7   20.80   26.30
  -1   6   7   29.70   51.99
   0  -6  -7 1480.55  177.38
   0  -6  -7 1720.03  134.09
   0  -6  -7 2033.10  166.58
   0   6   7 1809.62  265.17
  -1  -6  -7    5.40    9.60
  -1  -6  -7   24.40   20.50
  -1  -6  -7    4.70   20.90
   1   6   7    3.60   38.80
  -2  -6  -7 2662.03  209.38
  -2  -6  -7 2871.81  210.88
  -2  -6  -7 2584.94  224.98
   2   6   7 3060.29  274.87
  -3  -6  -7 1595.54  140.59
  -3  -6  -7 1570.44  137.69
  -3  -6  -7 1684.83  156.88
  -3  -6  -7 1841.12  131.79
   3   6   7 1895.31  230.48
  -4  -6  -7  885.01   92.69
  -4  -6  -7  711.03  109.29
  -4  -6  -7  708.03   88.89
  -4  -6  -7  856.51   60.29
   4   6   7  804.62  144.39
  -5  -6  -7  475.95   66.99
  -5  -6  -7  503.45   64.39
  -5  -6  -7  481.55   90.89
   5   6   7  446.56  116.09
  -6  -6  -7  290.07   48.70
  -6  -6  -7  256.47   70.99
  -6  -6  -7  231.58   49.99
   6   6   7  273.47  102.29
  -7  -6  -7 1677.33  207.88
  -7  -6  -7 1881.61  157.88
  -7  -6  -7 1815.52  148.79
   7   6   7 1708.63  283.37
  -8  -6  -7    3.70   18.20
  -8  -6  -7   11.70   22.00
  -8  -6  -7   54.69   37.60
  -9  -6  -7  277.57   75.69
   9   6   7  255.27   74.49
 -10  -6  -7  112.49   56.69
  10   6   7  246.38   80.09
 -11  -6  -7  527.35  121.99
  11   6   7  224.08   86.09
  -5   7   7  716.63  199.98
  -4   7   7   69.59   95.09
   3  -7  -7 1161.68  179.98
  -3   7   7 1065.49  237.78
   2  -7  -7  246.68   74.49
  -2   7   7  117.79   84.49
   1  -7  -7  308.37   71.89
  -1   7   7  121.49   86.69
   0  -7  -7  547.75  100.29
   0  -7  -7  732.43  102.89
   0   7   7  404.06  137.69
  -1  -7  -7   61.09   38.20
  -1  -7  -7   71.39   31.70
   1   7   7  110.99   74.59
  -2  -7  -7  336.47   55.39
  -2  -7  -7  321.57   72.09
   2   7   7  282.07   89.89
  -3  -7  -7  720.83  112.49
  -3  -7  -7  726.33   94.69
  -3  -7  -7 1036.00  103.69
   3   7   7 1054.19  172.98
  -4  -7  -7  622.24  107.99
  -4  -7  -7  658.13   83.79
  -4  -7  -7  689.03   86.89
   4   7   7  592.34  122.89
  -5  -7  -7  857.21  136.49
  -5  -7  -7 1082.79   99.39
  -5  -7  -7 1034.50  113.69
   5   7   7 1208.08  198.68
  -6  -7  -7 1438.16  129.19
  -6  -7  -7 1622.24  137.59
  -6  -7  -7 1158.78  169.98
   6   7   7 2086.69  285.97
  -7  -7  -7  392.76   62.79
  -7  -7  -7  318.97   86.89
  -7  -7  -7  279.27   58.39
   7   7   7  379.56  134.39
  -8  -7  -7  491.65   81.79
  -8  -7  -7  744.63   89.89
  -8  -7  -7  305.97   93.49
   8   7   7  879.11  207.38
  -9  -7  -7  -18.70   44.20
   9   7   7   84.19   45.00
 -10  -7  -7 1021.50  163.08
  10   7   7  851.81  144.29
  -4   8   7   29.80  108.39
  -3   8   7   40.70   86.49
  -2   8   7 2772.52  400.86
  -1   8   7  358.16  127.49
   0   8   7  962.70  192.08
  -1  -8  -7 1035.20  158.58
   1   8   7 1203.88  202.48
  -2  -8  -7  180.38   61.39
   2   8   7  227.38   84.49
  -3  -8  -7 1321.87  171.38
  -3  -8  -7 1224.18  130.09
   3   8   7 1152.08  188.48
  -4  -8  -7   68.59   41.60
  -4  -8  -7   40.20   26.00
  -4  -8  -7   34.70   25.50
   4   8   7   68.59   59.29
   4   8   7   52.59   50.39
  -5  -8  -7  315.57   59.99
  -5  -8  -7  485.35  104.89
  -5  -8  -7  319.67   59.49
   5   8   7  491.35  121.69
  -6  -8  -7   94.19   37.50
  -6  -8  -7   31.70   35.00
  -6  -8  -7   58.69   32.00
   6   8   7   31.80   61.79
  -7  -8  -7 1577.34  219.78
  -7  -8  -7 1373.46  153.58
  -7  -8  -7 1398.26  129.29
   7   8   7 1047.00  222.78
  -8  -8  -7   77.49   33.00
  -8  -8  -7   98.09   42.50
  -8  -8  -7  155.58   67.39
   8   8   7  100.49  103.09
  -9  -8  -7 1066.69  139.19
  -9  -8  -7  829.82  168.58
   9   8   7 1054.59  251.87
 -10  -8  -7  163.38   89.29
  10   8   7  140.09   69.79
  -3   9   7   18.90   85.29
  -2   9   7   36.90   90.29
  -1   9   7   32.40   75.89
   0   9   7   -5.70   54.19
  -1  -9  -7 1096.29  169.28
   1   9   7 1304.67  228.18
  -2  -9  -7 1428.36  194.88
   2   9   7 1790.82  255.47
  -3  -9  -7   45.50   44.50
  -3  -9  -7   54.09   30.70
   3   9   7  -16.20   48.20
   3   9   7   15.00   42.40
  -4  -9  -7  708.63   93.89
  -4  -9  -7  814.32  133.39
  -4  -9  -7  832.62  104.19
   4   9   7  585.54  136.49
   4   9   7  493.55  125.29
  -5  -9  -7  375.96   68.99
  -5  -9  -7  232.58   78.29
  -5  -9  -7  396.76   70.19
   5   9   7  273.67  105.89
  -6  -9  -7  613.14   93.19
  -6  -9  -7  693.93  139.09
  -6  -9  -7  552.94   84.89
   6   9   7  341.17  124.09
  -7  -9  -7  320.87   68.99
  -7  -9  -7  323.37   65.19
   7   9   7  151.48  105.19
  -8  -9  -7  327.27   69.99
  -8  -9  -7  327.37  101.19
  -8  -9  -7  431.86   83.89
   8   9   7  362.76  145.09
  -9  -9  -7    6.50   58.59
   9   9   7  126.89  106.09
 -10  -9  -7  652.33  150.58
   2 -10  -7   48.00   49.10
  -2  10   7  -37.10   77.39
   1 -10  -7   56.19   43.50
  -1  10   7  -58.79   61.69
   0 -10  -7   18.60   33.40
   0  10   7  171.88   99.59
   1  10   7  572.04  156.68
  -2 -10  -7  241.98   85.79
   2  10   7  171.28   96.69
  -3 -10  -7  121.69   67.99
   3  10   7  265.07   98.89
   3  10   7  102.09   69.19
  -4 -10  -7  501.75  119.99
  -4 -10  -7  407.06   76.19
   4  10   7  219.78   92.09
   4  10   7  395.46  124.39
  -5 -10  -7 1831.12  245.98
   5  10   7 2121.19  292.67
  -6 -10  -7  339.27   66.69
  -6 -10  -7  136.59   69.19
   6  10   7   -0.50   72.99
  -7 -10  -7  456.15  119.19
  -7 -10  -7  418.86   83.09
   7  10   7  320.57  137.79
  -8 -10  -7   94.49   75.09
  -8 -10  -7  218.58   60.79
   8  10   7  116.09  108.19
  -9 -10  -7  669.83  110.69
  -9 -10  -7  547.85  141.29
   9  10   7  795.92  223.38
   0  11   7 1436.06  256.47
   1  11   7   84.79   76.99
   2  11   7  107.39   77.79
   2  11   7  136.99   87.89
  -3 -11  -7   -0.20   42.00
   3  11   7  -48.60   49.40
   3  11   7   62.79   65.79
  -4 -11  -7  150.08   49.70
  -4 -11  -7  162.08   76.39
   4  11   7  101.79   85.19
  -5 -11  -7  495.95  120.89
  -5 -11  -7  416.26   80.69
   5  11   7  380.46  134.89
  -6 -11  -7   77.39   63.29
  -6 -11  -7  119.39   45.30
   6  11   7  126.69  100.09
  -7 -11  -7  -33.90   21.00
  -7 -11  -7  -26.10   34.90
   7  11   7  -41.30   86.19
  -8 -11  -7  971.60  135.99
   8  11   7 1262.07  271.77
   2  12   7   75.89   76.19
   2  12   7   19.30   75.29
  -3 -12  -7 2039.50  307.97
   3  12   7 1370.36  260.87
   3  12   7 1778.72  260.87
  -4 -12  -7  688.33  161.48
   4  12   7  808.72  198.58
  -5 -12  -7   50.49   37.70
  -5 -12  -7   58.69   64.19
   5  12   7  -94.49   57.39
  -6 -12  -7  -54.19   40.60
  -6 -12  -7   18.50   32.50
   6  12   7  -57.29   80.39
  -7 -12  -7  208.98  101.39
  -7 -12  -7  -16.50   36.80
   7  12   7  122.89  125.69
  -6 -10   8  775.42  167.68
  -5 -10   8  116.79   64.59
  -4 -10   8   -8.00   52.09
   3  10  -8  321.87  126.09
  -3 -10   8  274.27  100.79
   2  10  -8  -27.80   71.49
  -2 -10   8   49.60   56.09
   1  10  -8    3.70   75.29
  -1 -10   8   25.80   54.69
   0  10  -8   20.50   56.89
   0  10  -8   23.10   75.29
   0 -10   8  142.19   80.39
   7   9  -8   89.99   70.29
  -7  -9   8  380.16  117.09
  -6  -9   8  568.24  140.69
  -5  -9   8  439.66  119.79
  -4  -9   8  866.71  156.18
   3   9  -8 2141.09  281.47
  -3  -9   8 2072.69  262.87
  -3  -9   8 1823.32  248.78
   2   9  -8  -15.00   59.19
  -2  -9   8  -21.70   50.39
  -2  -9   8   12.30   47.10
   1   9  -8   13.60   53.69
   1   9  -8  -14.60   51.79
  -1  -9   8  210.18   86.09
   0   9  -8  201.28   92.19
   0   9  -8  195.78  110.69
   0  -9   8  304.37   97.99
  -1   9  -8  -27.00   75.69
   1  -9   8   18.10   50.79
  -2   9  -8   10.10   83.99
   2  -9   8   32.40   55.89
   8   8  -8  487.25  122.59
   7   8  -8  137.79   68.19
  -7  -8   8  126.89   83.89
  -6  -8   8  -41.10   47.10
  -5  -8   8  849.41  162.08
  -4  -8   8  239.38   92.79
  -4  -8   8  297.47   91.99
   3   8  -8  395.26  106.09
  -3  -8   8  439.76  114.69
  -3  -8   8  286.27   89.89
   2   8  -8  703.83  154.78
   2   8  -8  973.00  147.09
  -2  -8   8  729.03  149.39
  -2  -8   8  711.63  139.99
   1   8  -8  325.67   91.69
   1   8  -8  306.07  107.39
  -1  -8   8  109.29   64.39
   0   8  -8 2901.21  366.26
   0  -8   8 2716.83  271.77
  -1   8  -8  727.83  176.08
   1  -8   8  382.86  104.89
  -2   8  -8  -48.90   79.59
   2  -8   8   37.80   48.60
  -3   8  -8  -24.70   88.39
   3  -8   8  111.09   63.09
   8   7  -8  913.41  145.49
  -8  -7   8  409.66  128.69
   7   7  -8 1067.39  160.48
  -7  -7   8 1143.49  183.98
   6   7  -8   49.90   50.09
  -6  -7   8  206.78   81.79
  -5  -7   8 1120.99  183.88
  -4  -7   8  178.28   72.19
   3   7  -8  286.67   88.49
  -3  -7   8  239.28   86.99
  -3  -7   8  163.98   71.79
   2   7  -8  393.96   81.59
   2   7  -8  303.57   98.49
  -2  -7   8  366.96   89.39
  -2  -7   8   66.99   58.69
   1   7  -8  262.27   83.29
   1   7  -8  106.59   67.59
  -1  -7   8  151.38   67.09
   0   7  -8  326.07  107.89
   0  -7   8  255.67   85.79
  -1   7  -8 1012.30  197.08
   1  -7   8  804.62  142.99
  -2   7  -8   46.80   52.79
  -2   7  -8   30.10   72.49
   2  -7   8   56.09   54.89
  -3   7  -8 1453.75  201.28
  -3   7  -8 1523.25  262.17
   3  -7   8 1021.60  167.08
  -4   7  -8  952.30  225.48
  -4   7  -8 1076.99  169.68
   4  -7   8  881.41  159.28
  -5   7  -8    7.00   48.10
   5  -7   8   11.10   56.09
  -9  -6   8  833.62  210.48
   8   6  -8  429.46   93.39
  -8  -6   8  275.67  115.39
   7   6  -8  284.47   77.69
  -7  -6   8  318.37  115.69
  -7  -6   8  169.28   71.29
   6   6  -8  303.87   77.29
  -6  -6   8  225.48   84.29
  -5  -6   8  901.01  167.38
  -4  -6   8 3052.79  286.27
   3   6  -8  206.88   66.39
   3   6  -8  159.28   43.40
  -3  -6   8  113.29   58.09
  -3  -6   8  299.67   85.29
   2   6  -8 1865.81  233.38
   2   6  -8 2103.59  179.28
  -2  -6   8 1927.91  226.88
  -2  -6   8 1953.60  244.08
   1   6  -8  193.78   75.99
  -1  -6   8  102.69   50.49
  -1  -6   8  144.59   61.39
   0   6  -8  -25.30   24.90
   0   6  -8  186.18   81.89
   0  -6   8   68.79   45.20
  -1   6  -8  168.78   86.79
  -1   6  -8  213.08   70.89
   1  -6   8   58.69   47.50
  -2   6  -8  447.06   96.09
  -2   6  -8  440.16  126.89
   2  -6   8  378.66   92.39
  -3   6  -8   47.70   56.89
  -3   6  -8   81.29   47.00
  -3   6  -8   86.29   78.19
   3  -6   8   49.10   45.00
  -4   6  -8  617.64  120.99
  -4   6  -8  848.72  158.58
  -4   6  -8  463.55  152.28
   4  -6   8  545.55  116.09
  -5   6  -8  471.55  129.09
  -5   6  -8  428.66  109.69
   5  -6   8  454.05  111.19
   5  -6   8  249.97  121.09
  -6   6  -8  257.67   81.19
   6  -6   8  354.86  104.59
   6  -6   8  136.99  102.59
  -9  -5   8 1370.76  255.07
   8   5  -8   71.79   53.39
  -8  -5   8   68.69   72.59
   7   5  -8  165.48   60.29
  -7  -5   8   83.49   61.79
  -7  -5   8  202.68   97.99
   6   5  -8  365.76   80.69
  -6  -5   8  320.47  101.59
  -6  -5   8  411.56  106.59
  -5  -5   8 1044.10  172.08
  -4  -5   8   73.59   51.59
   3   5  -8  538.75   92.29
   3   5  -8  367.76   57.19
  -3  -5   8  373.86   90.09
  -3  -5   8  544.15  112.29
   2   5  -8  523.85   96.29
   2   5  -8  457.45   68.99
  -2  -5   8  451.35   97.89
  -2  -5   8  320.87   87.29
   1   5  -8 1779.72  234.78
   1   5  -8 2496.75  220.98
  -1  -5   8 2337.87  213.98
  -1  -5   8 2428.96  229.88
   0   5  -8 1339.17  194.18
   0   5  -8 1991.60  209.18
   0  -5   8 1390.26  187.68
  -1   5  -8  751.02  115.69
  -1   5  -8  685.43  141.19
   1  -5   8  720.93  124.99
  -2   5  -8 1320.57  148.99
  -2   5  -8  721.23   95.39
  -2   5  -8 1116.19  183.18
  -2   5  -8  997.50  135.29
   2  -5   8  778.32  128.49
  -3   5  -8   -1.10   38.20
  -3   5  -8  -14.00   24.60
  -3   5  -8    2.00   51.39
   3  -5   8    8.40   30.90
  -4   5  -8  -25.60   26.90
  -4   5  -8  -42.80   39.80
  -4   5  -8   12.50   58.49
   4  -5   8   28.70   59.49
   4  -5   8  -28.00   24.40
  -5   5  -8  269.27   73.99
  -5   5  -8  429.36  119.49
   5  -5   8  205.58  110.59
   5  -5   8  287.67   87.79
  -6   5  -8   70.79   51.19
  -6   5  -8   -1.50   62.09
   6  -5   8    8.90   71.29
   6  -5   8  102.99   62.39
  -7   5  -8   48.40   41.60
  -7   5  -8  135.59   95.09
   7  -5   8  162.78  107.39
  -9  -4   8  -34.50   69.99
  -8  -4   8   81.99   71.09
   7   4  -8  198.88   63.99
  -7  -4   8  170.88   66.89
  -7  -4   8  178.18   94.99
   6   4  -8 1910.21  176.98
  -6  -4   8 2118.29  273.87
  -6  -4   8 1885.81  239.88
   5   4  -8  336.67   65.99
  -5  -4   8  278.77   85.49
  -5  -4   8  336.07  100.19
  -4  -4   8  542.35  120.39
  -3  -4   8   23.40   37.60
   2   4  -8 1718.83  129.99
   2   4  -8 1546.65  159.18
   2   4  -8 2184.18  217.88
  -2  -4   8 1450.25  188.58
  -2  -4   8 2077.29  228.58
   1   4  -8   26.60   31.40
   1   4  -8   83.89   47.20
  -1  -4   8   11.20   29.10
  -1  -4   8  -27.90   22.00
   0   4  -8  349.96   64.89
   0   4  -8  513.85   91.89
   0   4  -8  465.15   95.19
   0  -4   8  329.67   84.29
  -1   4  -8   88.09   30.60
  -1   4  -8  136.59   60.89
  -1   4  -8  149.79   37.10
  -1   4  -8  178.18   54.39
   1  -4   8  109.19   52.19
  -2   4  -8 1272.37  122.19
  -2   4  -8 1503.25  166.48
  -2   4  -8 1570.54  211.28
  -2   4  -8 1423.16  138.59
   2  -4   8 1577.34  184.48
  -3   4  -8 3319.77  270.67
  -3   4  -8 3871.51  332.97
  -3   4  -8 3120.99  278.37
   3  -4   8 3053.29  279.27
   3  -4   8 3366.66  316.37
  -4   4  -8  -46.40   35.60
  -4   4  -8   72.19   63.79
  -4   4  -8   36.30   31.60
   4  -4   8    5.90   25.30
   4  -4   8   43.70   57.39
  -5   4  -8 1072.89  143.59
  -5   4  -8 1055.09  176.98
   5  -4   8  927.01  176.98
  -6   4  -8   11.00   30.40
  -6   4  -8  -13.70   67.99
   6  -4   8   63.59   66.39
  -7   4  -8  -25.80   63.19
  -7   4  -8  -19.80   38.60
   7  -4   8  -43.40   49.90
  -9  -3   8  657.73  189.68
  -8  -3   8  306.07  126.99
   7   3  -8 2392.86  205.48
  -7  -3   8 2642.74  336.97
  -7  -3   8 1974.10  204.78
   6   3  -8  688.93   96.89
  -6  -3   8  326.67  114.79
  -6  -3   8  772.22  128.19
   5   3  -8   37.70   28.60
  -5  -3   8  123.59   69.19
  -5  -3   8  161.18   65.89
  -4  -3   8   77.89   52.59
  -3  -3   8 2211.68  220.98
   2   3  -8 2548.45  228.98
   2   3  -8 2507.15  212.48
  -2  -3   8 3057.59  256.37
  -2  -3   8 3072.59  255.17
   1   3  -8   80.49   33.70
   1   3  -8   20.40   29.80
   1   3  -8   29.50   28.20
  -1  -3   8   11.00   30.80
  -1  -3   8   21.30   26.50
   0   3  -8  702.03   96.29
   0   3  -8  379.46   69.19
   0   3  -8  425.96   86.29
   0  -3   8  484.65   99.39
  -1   3  -8 1125.79  152.88
  -1   3  -8 1057.49   95.29
  -1   3  -8 1035.70  125.89
  -1   3  -8 1285.37  112.59
   1  -3   8 1159.78  156.88
  -2   3  -8  625.04   94.69
  -2   3  -8  687.63   80.79
  -2   3  -8  560.34   86.69
  -2   3  -8  704.33  125.99
   2  -3   8  862.61  125.59
  -3   3  -8  254.07   42.30
  -3   3  -8  343.97   78.09
  -3   3  -8  341.27   94.39
  -3   3  -8  330.77   63.19
   3  -3   8  178.58   74.09
   3  -3   8  350.26   78.19
  -4   3  -8  133.49   70.39
  -4   3  -8   65.09   45.60
  -4   3  -8  133.79   42.90
   4  -3   8  171.78   72.69
  -5   3  -8  562.44  140.09
  -5   3  -8  654.53  100.89
  -5   3  -8  426.56  104.49
   5  -3   8  365.06  100.79
  -6   3  -8 2099.69  186.98
  -6   3  -8 1651.03  249.28
   6  -3   8 1772.32  249.78
  -7   3  -8  324.17   84.39
  -7   3  -8  739.73  175.28
  -8   3  -8  416.66  138.19
  -8   3  -8  395.16   94.09
   8  -3   8  345.77  120.89
  -9  -2   8  -32.50   97.09
  -8  -2   8  274.87  127.49
  -7  -2   8  168.38   94.79
   6   2  -8  572.74   90.69
  -6  -2   8  602.74  149.09
  -6  -2   8  766.62  116.79
   5   2  -8   42.90   26.60
  -5  -2   8   26.90   31.90
  -5  -2   8   49.60   46.80
   4   2  -8 2244.18  183.88
  -4  -2   8 2613.84  238.58
  -4  -2   8 2426.66  239.88
   3   2  -8 1202.18  148.09
  -3  -2   8 1198.98  176.98
   2   2  -8  161.08   31.60
   2   2  -8  102.79   41.30
   2   2  -8  153.78   34.00
  -2  -2   8  106.99   52.29
  -2  -2   8  114.99   50.89
   1   2  -8   62.79   31.50
   1   2  -8  103.99   34.20
  -1  -2   8   95.39   48.60
  -1  -2   8   53.89   37.00
   0   2  -8 1385.46  139.29
   0   2  -8 1072.99  126.29
   0   2  -8 1163.18  117.89
   0  -2   8  948.11  145.89
  -1   2  -8 4702.83  342.17
  -1   2  -8 4390.86  343.87
  -1   2  -8 4631.04  328.37
  -1   2  -8 4846.92  343.77
  -1   2  -8 5069.09  369.56
   1  -2   8 4580.44  371.86
  -2   2  -8  390.46   87.39
  -2   2  -8  425.76   61.19
  -2   2  -8  399.16   47.90
  -2   2  -8  278.27   54.49
  -2   2  -8  537.85   72.99
  -2   2  -8  421.26   70.99
   2  -2   8  396.56   95.69
  -3   2  -8  473.05   72.09
  -3   2  -8  547.05   74.79
  -3   2  -8  414.76   55.29
  -3   2  -8  487.85   92.19
  -3   2  -8  472.35  108.69
   3  -2   8  346.27   91.29
  -4   2  -8  307.47   58.09
  -4   2  -8  311.47   81.99
  -4   2  -8  245.78   82.49
  -4   2  -8  193.98   27.80
   4  -2   8  248.88   77.59
  -5   2  -8  479.05  123.89
  -5   2  -8  709.53   99.89
  -5   2  -8  774.62  140.99
   5  -2   8  555.44  120.79
  -6   2  -8   60.79   66.29
  -6   2  -8  -16.10   19.20
   6  -2   8    0.90   41.90
  -7   2  -8   -8.10   25.80
  -7   2  -8   39.30   62.99
   7  -2   8  -25.80   52.09
  -8   2  -8  193.18   96.79
  -8   2  -8   20.40   43.40
   8  -2   8    9.00   67.39
  -9   2  -8 1354.96  185.08
  -9   2  -8 1323.87  271.17
   9  -2   8  711.53  177.88
   9   1  -8 1139.49  211.18
  -9  -1   8  768.02  217.98
  -8  -1   8  906.01  216.68
  -7  -1   8  276.77  119.69
  -6  -1   8  404.16  135.19
   5   1  -8  151.38   34.90
  -5  -1   8   72.19   60.29
  -5  -1   8   44.60   32.70
   4   1  -8 1312.27  109.99
  -4  -1   8 1470.05  176.08
  -4  -1   8 1235.38  194.38
   3   1  -8  276.87   63.79
  -3  -1   8  178.88   59.79
  -3  -1   8   99.79   57.89
   2   1  -8 1471.85  144.09
  -2  -1   8 1069.19  155.88
  -2  -1   8  847.82  139.39
   1   1  -8 2097.89  168.08
   1   1  -8 2576.44  185.48
   1   1  -8 2082.39  240.58
   1   1  -8 2505.55  187.98
   1   1  -8 2197.38  168.28
  -1  -1   8 2269.27  211.38
  -1  -1   8 2110.29  208.78
   0   1  -8 3667.93  281.47
   0   1  -8 3344.37  249.58
   0   1  -8 3152.08  256.37
   0   1  -8 3408.66  259.27
   0   1  -8 3820.22  244.98
   0   1  -8 3466.05  259.97
   0  -1   8 3001.50  284.17
  -1   1  -8   45.00   20.80
  -1   1  -8   36.60   27.50
  -1   1  -8    7.60   13.90
  -1   1  -8    7.20   17.60
  -1   1  -8   44.60   21.50
  -2   1  -8  462.95   60.29
  -2   1  -8  343.87   51.79
  -2   1  -8  486.85   89.89
  -2   1  -8  389.76   69.99
  -2   1  -8  414.36   55.89
  -3   1  -8    0.80   27.20
  -3   1  -8   -1.70   29.20
  -3   1  -8   -1.70   12.80
  -3   1  -8   -1.00   14.50
  -4   1  -8 3112.19  235.38
  -4   1  -8 3001.70  273.27
  -4   1  -8 3091.09  220.18
  -4   1  -8 3108.19  236.88
  -4   1  -8 3424.66  291.57
  -5   1  -8 2493.95  238.38
  -5   1  -8 1908.21  243.28
  -5   1  -8 2243.08  180.18
   5  -1   8 1909.21  238.58
  -6   1  -8  240.48   53.99
  -6   1  -8  163.08   78.29
   6  -1   8  210.38   70.89
  -7   1  -8   33.00   33.30
  -7   1  -8    5.00   67.59
   7  -1   8   -6.60   44.50
  -8   1  -8  401.76   86.19
  -8   1  -8  287.27  120.99
   8  -1   8  271.87   98.19
  -9   1  -8   -0.70   35.50
  -9   1  -8   89.69   89.09
   9  -1   8   44.30   64.69
   8   0  -8 1297.77  176.08
   8   0  -8 1155.68  200.58
  -8   0   8 1355.86  261.67
   7   0  -8  296.67   74.89
  -7   0   8  301.97  119.29
   6   0  -8  783.32  111.99
  -6   0   8  943.71  197.68
   5   0  -8 1172.48  108.89
  -5   0   8 2192.78  273.27
   4   0  -8  508.15   56.09
   4   0  -8  403.06   74.29
  -4   0   8  455.35  126.79
   3   0  -8 1375.96  140.59
   3   0  -8  934.71   74.99
   3   0  -8  712.53  103.69
  -3   0   8 1302.87  146.09
  -3   0   8  958.40  165.58
   2   0  -8  145.29   43.90
   2   0  -8  186.58   45.40
  -2   0   8  140.89   64.59
  -2   0   8  201.48   57.09
  -2   0   8  265.17   65.89
   1   0  -8 2307.17  179.48
   1   0  -8 2230.28  177.88
   1   0  -8 2155.98  194.58
  -1   0   8 2407.36  209.78
   0   0  -8  101.69   42.20
   0   0  -8  127.49   29.60
   0   0  -8  121.69   30.50
   0   0  -8    4.30   31.50
   0   0  -8  164.38   37.70
   0   0  -8   77.89   24.70
   0   0  -8  128.89   29.50
  -1   0  -8  994.30   89.79
  -1   0  -8 1191.38  110.59
  -1   0  -8 1152.48   93.79
  -2   0  -8  498.95   46.60
  -2   0  -8  497.75   85.49
  -2   0  -8  454.65   80.89
  -2   0  -8  481.05   52.39
  -3   0  -8 2812.52  195.88
  -3   0  -8 2548.65  236.08
  -3   0  -8 2760.42  239.18
  -3   0  -8 2671.63  194.28
  -4   0  -8  887.01   78.59
  -4   0  -8  780.02   69.99
  -4   0  -8  958.40   83.09
  -4   0  -8  942.01  143.99
  -4   0  -8  771.32   93.19
  -4   0  -8 1057.19  154.78
  -5   0  -8  224.18   24.30
  -5   0  -8  204.38   20.80
  -5   0  -8  281.27   86.19
  -5   0  -8   89.79   31.20
  -5   0  -8  258.77   90.09
  -6   0  -8   43.90   28.50
  -6   0  -8   70.79   68.29
  -7   0  -8  963.00  121.59
  -7   0  -8  934.61  189.28
   7   0   8  870.31  157.58
  -8   0  -8 1295.07  236.58
  -8   0  -8 1969.70  198.38
   8   0   8 1200.08  197.18
  -9   0  -8   19.60   35.40
  -9   0  -8   38.90   83.29
   9   0   8   39.50   61.39
   8  -1  -8  418.96  126.09
   8  -1  -8  296.77   80.79
  -8   1   8  343.77  144.09
   7  -1  -8   19.70   30.90
   7  -1  -8  -58.39   34.20
  -7   1   8   47.00   75.49
   6  -1  -8   68.69   39.30
  -6   1   8  219.58  107.29
   5  -1  -8  807.72  114.19
  -5   1   8  911.41  185.78
   4  -1  -8 1356.16  131.29
  -4   1   8 1449.26  232.68
   3  -1  -8  673.83   89.39
   3  -1  -8  483.75   83.09
  -3   1   8  578.94  140.19
   2  -1  -8 3272.07  253.47
   2  -1  -8 3242.28  252.07
   2  -1  -8 3243.98  280.97
  -2   1   8 3344.17  261.47
  -2   1   8 3291.17  306.97
   1  -1  -8 1099.19  118.89
   1  -1  -8 1066.29  145.29
   1  -1  -8  890.81   73.19
   1  -1  -8  929.61   90.59
   1  -1  -8 1044.30   92.49
  -1   1   8 1038.90  122.49
   0  -1  -8 1107.69  101.49
   0  -1  -8 1127.39   93.69
   0  -1  -8 1164.28   95.29
   0  -1  -8 1042.50  127.99
   0  -1  -8 1264.87  171.78
   0  -1  -8 1117.49   93.79
  -1  -1  -8  735.23  101.09
  -1  -1  -8  850.21   67.59
  -1  -1  -8  896.01   67.69
  -1  -1  -8  678.33  124.39
  -2  -1  -8 2588.84  172.68
  -2  -1  -8 2511.35  172.68
  -3  -1  -8  817.42   62.99
  -3  -1  -8  782.62   75.09
  -3  -1  -8  639.24  112.59
  -3  -1  -8  852.91   64.19
  -4  -1  -8  445.66   53.69
  -4  -1  -8  430.36  104.49
  -4  -1  -8  599.64   63.49
  -4  -1  -8  469.85   52.59
  -5  -1  -8  155.48   60.09
  -5  -1  -8  138.59   21.70
  -5  -1  -8  195.68   80.29
  -5  -1  -8  116.89   33.40
  -5  -1  -8  140.09   33.00
  -6  -1  -8 1099.39  107.29
  -6  -1  -8 1120.79  187.38
   6   1   8 1223.08  153.58
  -7  -1  -8  921.51  115.59
  -7  -1  -8  697.43  156.88
   7   1   8 1102.99  159.58
  -8  -1  -8  262.77  118.69
  -8  -1  -8  429.96   83.89
   8   1   8  163.58   75.69
  -9  -1  -8  335.37   79.09
  -9  -1  -8  214.68  115.29
 -10  -1  -8  285.27  144.69
 -10  -1  -8  131.09   56.79
  10   1   8  139.89   75.99
   8  -2  -8   34.90   47.90
   8  -2  -8    9.80   57.79
  -8   2   8   89.99   83.29
   7  -2  -8  442.56   90.29
   7  -2  -8  366.06  103.59
  -7   2   8  397.06  123.69
  -7   2   8  338.77  120.89
   6  -2  -8  144.69   52.69
   6  -2  -8  114.59   59.49
  -6   2   8  176.38   88.89
   5  -2  -8  622.44   95.79
  -5   2   8  454.95  133.59
   4  -2  -8  358.76   63.89
  -4   2   8  144.69   81.59
   3  -2  -8  294.97   75.89
   3  -2  -8  207.08   46.70
   3  -2  -8  273.47   61.69
  -3   2   8  100.29   68.89
   2  -2  -8   36.30   25.40
   2  -2  -8   83.99   22.60
   2  -2  -8  100.89   30.90
   2  -2  -8   90.19   40.30
  -2   2   8  124.99   66.19
   1  -2  -8 3679.13  302.07
   1  -2  -8 3556.34  262.87
   1  -2  -8 3852.71  280.27
   1  -2  -8 4013.10  277.77
   1  -2  -8 3872.01  277.97
  -1   2   8 3525.85  323.27
   0  -2  -8   76.29   22.60
   0  -2  -8  138.89   37.80
   0  -2  -8  109.29   25.80
   0  -2  -8  147.09   30.60
   0  -2  -8  154.38   51.99
   0  -2  -8  143.09   21.20
  -1  -2  -8 2919.01  231.98
  -1  -2  -8 2866.41  199.68
  -1  -2  -8 2699.63  251.87
  -1  -2  -8 2888.81  199.88
  -2  -2  -8 1451.05  100.89
  -2  -2  -8 1589.44  188.38
  -2  -2  -8 1485.85  101.49
  -2  -2  -8 1543.45  126.29
  -3  -2  -8  827.42   63.59
  -3  -2  -8  904.11   79.49
  -3  -2  -8  834.52   62.19
  -4  -2  -8 1818.22  131.69
  -4  -2  -8 1616.74  214.18
  -4  -2  -8 1752.62  133.89
  -4  -2  -8 1660.93  133.09
  -4  -2  -8 1902.71  136.29
  -5  -2  -8   29.80   21.50
  -5  -2  -8  202.68   76.79
  -5  -2  -8   70.49   19.00
  -5  -2  -8  144.89   31.00
  -5  -2  -8  107.29   20.30
  -6  -2  -8 2921.71  328.77
  -6  -2  -8 2440.46  169.78
  -6  -2  -8 2320.87  175.78
  -6  -2  -8 2643.94  196.88
  -7  -2  -8   34.20   25.30
  -7  -2  -8  -47.20   39.70
   7   2   8    5.30   32.00
  -8  -2  -8  428.86   82.79
  -8  -2  -8  410.96  126.69
   8   2   8  311.97   84.29
  -9  -2  -8  111.59   47.00
  -9  -2  -8  -37.90   75.49
   9   2   8   42.30   48.40
 -10  -2  -8  195.28  117.29
 -10  -2  -8  332.37   88.79
  10   2   8  529.75  129.29
   7  -3  -8  927.61  138.79
   7  -3  -8  619.44  134.09
  -7   3   8  603.34  156.88
   6  -3  -8 2721.93  242.18
   6  -3  -8 2687.93  256.17
  -6   3   8 3163.78  356.26
  -6   3   8 2749.23  285.27
   5  -3  -8  112.99   39.90
   5  -3  -8  170.58   55.49
  -5   3   8  103.49   60.69
  -5   3   8  203.38   84.09
   4  -3  -8  762.12  102.69
   4  -3  -8  810.22  131.79
  -4   3   8  970.40  165.98
  -4   3   8 1180.78  187.28
   3  -3  -8  -10.00   24.60
   3  -3  -8   39.40   23.40
  -3   3   8  -15.10   35.20
   2  -3  -8  595.24   78.29
   2  -3  -8  696.43  108.69
   2  -3  -8  701.93   93.19
  -2   3   8  851.41  145.19
   1  -3  -8 1881.31  150.18
   1  -3  -8 1733.83  164.68
   1  -3  -8 1727.23  142.39
  -1   3   8 1521.05  201.48
   0  -3  -8   54.59   29.50
   0  -3  -8  107.79   29.90
   0  -3  -8  147.49   33.10
   0  -3  -8   78.89   38.30
   0  -3  -8   83.19   25.20
   0   3   8   79.49   45.60
  -1  -3  -8  105.19   25.00
  -1  -3  -8   97.19   31.60
  -1  -3  -8  120.69   40.40
  -1  -3  -8  131.99   26.20
  -1  -3  -8  128.59   32.90
  -1  -3  -8   43.80   32.70
  -2  -3  -8 2049.09  153.28
  -2  -3  -8 2200.78  169.78
  -2  -3  -8 2102.39  196.08
  -2  -3  -8 2217.48  166.28
  -2  -3  -8 2017.40  175.78
  -2  -3  -8 2222.18  152.98
  -3  -3  -8 1508.95  187.18
  -3  -3  -8 1821.32  137.79
  -3  -3  -8 1652.13  124.99
  -3  -3  -8 1633.34  126.79
  -3  -3  -8 1787.12  134.69
  -4  -3  -8 1226.28  100.59
  -4  -3  -8 1202.08  104.79
  -4  -3  -8 1203.68  102.29
  -4  -3  -8 1294.37  100.39
  -5  -3  -8 1814.42  141.39
  -5  -3  -8 1798.92  145.99
  -5  -3  -8 1669.23  130.49
  -5  -3  -8 1619.14  222.78
  -5  -3  -8 1778.92  135.79
  -6  -3  -8  610.34   79.89
  -6  -3  -8  502.45   60.19
  -6  -3  -8  674.33  149.88
  -6  -3  -8  526.85   50.09
  -7  -3  -8 2053.19  275.17
  -7  -3  -8 1192.58  133.19
  -7  -3  -8 1047.20   93.99
   7   3   8 1025.80  156.98
  -8  -3  -8   40.40   33.20
  -8  -3  -8   92.09   78.09
   8   3   8  130.89   52.39
  -9  -3  -8 1034.60  219.78
  -9  -3  -8  978.20  134.39
   9   3   8  516.85  117.49
 -10  -3  -8  146.09  107.49
 -10  -3  -8  437.76   99.19
  10   3   8  200.18   95.59
   7  -4  -8   12.70   40.10
  -7   4   8   49.10   71.09
   6  -4  -8   49.80   47.30
  -6   4   8  115.69   78.79
  -6   4   8   18.90   49.99
   5  -4  -8   74.19   60.89
   5  -4  -8   76.79   41.50
   5  -4  -8  107.69   50.89
  -5   4   8  119.19   64.19
  -5   4   8  113.49   83.09
   4  -4  -8   -1.00   32.60
   4  -4  -8  152.18   62.99
   4  -4  -8  165.48   49.70
  -4   4   8  127.49   80.99
  -4   4   8   75.89   47.50
   3  -4  -8 4351.76  321.17
   3  -4  -8 4282.97  352.86
   3  -4  -8 4357.26  321.57
  -3   4   8 4310.67  363.16
  -3   4   8 4050.59  383.26
   2  -4  -8 1677.43  153.88
   2  -4  -8  901.71  131.09
   2  -4  -8 1428.66  120.79
  -2   4   8 1304.07  180.28
  -2   4   8 1572.14  220.98
   1  -4  -8  290.07   45.80
   1  -4  -8  278.67   59.19
   1  -4  -8  315.57   66.19
  -1   4   8  319.87   81.89
   0  -4  -8  487.65   70.29
   0  -4  -8  458.25   62.59
   0  -4  -8  361.76   49.50
   0  -4  -8  363.26   67.49
   0   4   8  428.66   87.79
  -1  -4  -8  713.33   82.29
  -1  -4  -8  751.02   67.99
  -1  -4  -8  859.11   86.69
  -1  -4  -8  563.04   87.89
  -1  -4  -8  618.84   78.39
  -1  -4  -8  732.43   69.59
   1   4   8  784.52  133.89
  -2  -4  -8 1462.75  135.89
  -2  -4  -8 1522.45  120.39
  -2  -4  -8 1531.95  126.99
  -2  -4  -8 1438.46  126.99
  -2  -4  -8 1563.04  122.49
  -2  -4  -8 1393.66  120.79
  -2  -4  -8 1620.04  126.09
  -3  -4  -8   33.60   17.10
  -3  -4  -8   29.80   27.00
  -3  -4  -8   18.70   16.70
  -3  -4  -8   14.40   16.50
  -3  -4  -8   42.20   19.90
  -4  -4  -8  557.64   69.49
  -4  -4  -8  373.66   75.99
  -4  -4  -8  571.74   72.59
  -4  -4  -8  408.56   57.49
  -4  -4  -8  483.55   58.09
  -5  -4  -8  288.67   44.80
  -5  -4  -8  254.47   49.70
  -5  -4  -8  224.68   37.30
  -5  -4  -8  405.06   72.19
  -6  -4  -8 2492.25  201.58
  -6  -4  -8 2551.74  208.28
  -6  -4  -8 2536.55  194.58
  -6  -4  -8 2653.03  188.68
  -6  -4  -8 2728.13  319.37
  -7  -4  -8   -6.90   11.70
  -7  -4  -8    2.60   15.80
  -7  -4  -8   17.50   25.40
  -7  -4  -8   12.80   43.40
  -8  -4  -8  689.53  175.88
  -8  -4  -8  733.93  112.29
   8   4   8 1104.69  144.09
  -9  -4  -8  512.55   96.79
  -9  -4  -8  545.55  150.08
   9   4   8  403.26   95.59
 -10  -4  -8  833.12  193.98
 -10  -4  -8  983.30  148.39
  10   4   8  683.33  143.89
   6  -5  -8   -7.00   38.20
  -6   5   8   76.09   89.29
   5  -5  -8   37.70   31.50
  -5   5   8   55.19   79.09
  -5   5   8   68.79   49.40
   4  -5  -8   14.80   27.30
   4  -5  -8   -9.70   35.70
  -4   5   8   13.80   70.59
  -4   5   8  137.59   56.09
   3  -5  -8   82.29   47.40
   3  -5  -8  118.89   41.80
   3  -5  -8   41.30   28.20
  -3   5   8  143.09   56.59
  -3   5   8  258.67  104.19
   2  -5  -8  172.28   50.99
   2  -5  -8  182.68   61.99
   2  -5  -8  148.59   36.60
   2  -5  -8  106.29   33.40
  -2   5   8   90.19   73.19
  -2   5   8  175.38   61.39
   1  -5  -8  253.17   43.50
   1  -5  -8  189.78   56.09
   1  -5  -8  186.18   54.59
   1  -5  -8  261.97   36.60
  -1   5   8  276.87   72.39
  -1   5   8  183.78   89.89
   0  -5  -8 3171.08  227.18
   0  -5  -8 3242.78  254.77
   0  -5  -8 2934.21  249.08
   0   5   8 2854.61  344.27
   0   5   8 3392.96  272.47
  -1  -5  -8 3640.84  257.47
  -1  -5  -8 4084.29  286.07
  -1  -5  -8 3358.26  279.67
   1   5   8 4193.08  353.56
  -2  -5  -8    3.10   12.50
  -2  -5  -8    9.70   13.80
  -2  -5  -8    9.30    8.90
  -2  -5  -8   13.60   18.10
  -2  -5  -8   22.00   18.40
  -2  -5  -8   44.20   23.00
  -3  -5  -8  707.43   88.69
  -3  -5  -8  736.93   71.99
  -3  -5  -8  619.24   80.69
  -3  -5  -8  636.54   75.99
  -3  -5  -8  652.33   78.79
  -3  -5  -8  664.33   65.69
  -4  -5  -8  303.17   59.19
  -4  -5  -8  304.27   59.09
  -4  -5  -8  318.97   50.59
  -4  -5  -8  280.57   48.20
  -4  -5  -8  326.57   48.50
  -5  -5  -8 1714.63  140.19
  -5  -5  -8 1497.15  151.48
  -5  -5  -8 1765.02  134.79
  -5  -5  -8 1663.73  146.59
  -6  -5  -8 1091.59   90.79
  -6  -5  -8  978.40   96.09
  -6  -5  -8 1029.70  126.09
  -6  -5  -8 1201.68  195.28
  -6  -5  -8  953.80   89.79
  -7  -5  -8  365.96   61.59
  -7  -5  -8  468.95   60.59
  -7  -5  -8  418.16  145.49
  -7  -5  -8  476.25   86.59
   7   5   8  516.85  151.88
  -8  -5  -8  148.59   49.40
  -8  -5  -8  102.89   33.90
  -9  -5  -8 1033.40  139.39
   9   5   8  730.23  126.69
 -10  -5  -8  258.37   70.79
  10   5   8  158.08   73.09
 -11  -5  -8  153.18   68.99
  11   5   8  231.38   94.29
  -5   6   8 1124.49  229.58
   4  -6  -8 1512.95  145.29
  -4   6   8 1009.90  220.48
   3  -6  -8   48.20   43.00
   3  -6  -8   12.00   23.80
  -3   6   8  -13.40   55.69
  -3   6   8   23.70   33.20
   2  -6  -8  144.89   52.79
   2  -6  -8   19.40   22.60
  -2   6   8   92.29   85.39
   1  -6  -8  166.88   55.49
   1  -6  -8  209.48   39.00
   1  -6  -8  131.49   48.10
  -1   6   8  118.59   81.59
   0  -6  -8  102.99   25.00
   0  -6  -8   49.10   34.20
   0  -6  -8   90.79   39.10
   0   6   8  243.28  100.59
  -1  -6  -8   57.19   30.80
  -1  -6  -8   54.59   15.60
  -1  -6  -8   60.09   31.10
   1   6   8  144.19   71.69
  -2  -6  -8  725.03   91.49
  -2  -6  -8  868.31   62.29
  -2  -6  -8  739.63   91.69
  -2  -6  -8  878.91  110.79
   2   6   8 1143.69  185.58
  -3  -6  -8  368.86   69.19
  -3  -6  -8  531.35   63.99
  -3  -6  -8  604.34   74.89
  -3  -6  -8  667.83   81.49
  -3  -6  -8  517.15   85.39
   3   6   8  454.75  110.79
  -4  -6  -8 5286.67  353.36
  -4  -6  -8 5589.24  359.46
  -4  -6  -8 4925.91  348.07
  -4  -6  -8 5478.55  374.86
  -4  -6  -8 5064.89  392.66
  -4  -6  -8 5240.68  377.46
   4   6   8 5412.76  432.56
  -5  -6  -8  421.36   32.90
  -5  -6  -8  483.15   69.29
  -5  -6  -8  372.26   76.69
  -5  -6  -8  356.26   57.39
  -6  -6  -8  117.49   36.00
  -6  -6  -8  144.69   35.50
  -6  -6  -8  100.69   48.40
   6   6   8  479.85  129.09
  -7  -6  -8   52.09   23.00
  -7  -6  -8   54.89   42.00
  -7  -6  -8  141.49   39.00
   7   6   8  209.18  105.19
  -8  -6  -8  514.85  105.59
  -8  -6  -8  457.15   75.89
  -9  -6  -8 1066.69  151.48
   9   6   8  822.32  134.29
 -10  -6  -8   35.80   46.20
  10   6   8  -21.00   38.10
 -11  -6  -8   84.29   54.89
  11   6   8  136.09   92.39
  -5   7   8  148.19  115.59
  -4   7   8  601.84  191.58
   3  -7  -8  504.35  140.59
  -3   7   8  266.57  132.29
   2  -7  -8  858.91  140.39
  -2   7   8 1043.90  212.68
   1  -7  -8 1809.22  214.08
  -1   7   8 2329.87  324.07
   0  -7  -8  294.17   74.49
   0  -7  -8  394.86   79.19
   0   7   8  208.98  109.29
  -1  -7  -8   65.19   37.70
  -1  -7  -8  179.88   49.40
   1   7   8  164.78   81.69
  -2  -7  -8   50.89   26.00
  -2  -7  -8   32.60   20.70
  -2  -7  -8   88.19   42.20
   2   7   8   16.30   50.39
  -3  -7  -8  154.98   34.70
  -3  -7  -8  209.48   43.70
  -3  -7  -8  147.49   48.90
  -3  -7  -8  239.48   47.20
   3   7   8  147.69   73.19
  -4  -7  -8  265.47   49.00
  -4  -7  -8  215.68   60.89
  -4  -7  -8  274.37   52.79
   4   7   8  350.06   95.49
  -5  -7  -8  563.04   79.89
  -5  -7  -8  437.96   68.29
  -5  -7  -8  463.55   92.79
  -6  -7  -8   28.90   22.60
  -6  -7  -8  -10.60   25.60
  -6  -7  -8   46.10   25.80
   6   7   8   38.00   60.89
  -7  -7  -8 2334.87  190.88
  -7  -7  -8 2373.76  199.88
  -7  -7  -8 2369.46  226.58
   7   7   8 2605.04  349.57
  -8  -7  -8 1691.03  156.58
  -8  -7  -8 1468.55  199.98
  -8  -7  -8 1570.24  142.79
   8   7   8 2157.98  337.67
  -9  -7  -8  -45.60   33.20
 -10  -7  -8   58.99   53.59
  10   7   8  108.49   52.89
  -4   8   8   39.10   94.19
  -3   8   8   49.30   95.19
  -2   8   8  137.09  101.89
   1  -8  -8  195.78   68.89
  -1   8   8  204.78  105.59
   0  -8  -8 1317.87  158.88
   0  -8  -8  950.50  155.38
   0   8   8 1177.58  225.88
  -1  -8  -8   35.60   30.30
  -1  -8  -8   24.40   31.10
   1   8   8  121.99   78.09
  -2  -8  -8 3230.18  275.77
   2   8   8 2804.32  349.87
  -3  -8  -8 1371.86  149.09
  -3  -8  -8 1424.26  185.58
   3   8   8 1923.71  259.37
  -4  -8  -8   40.80   31.50
  -4  -8  -8  -11.00   15.60
  -4  -8  -8   17.00   22.80
   4   8   8   38.40   53.29
  -5  -8  -8   50.49   46.30
  -5  -8  -8   40.20   28.00
  -5  -8  -8   96.09   33.10
   5   8   8  -39.60   39.40
  -6  -8  -8   50.69   40.10
  -6  -8  -8    9.10   19.50
  -6  -8  -8   76.39   34.60
   6   8   8   74.99   68.69
  -7  -8  -8  618.64  131.09
  -7  -8  -8  498.95   82.29
  -7  -8  -8  334.77   64.89
   7   8   8  555.34  165.58
  -8  -8  -8   96.89   34.90
  -8  -8  -8   13.80   31.50
  -8  -8  -8   25.90   42.80
   8   8   8  -40.50   65.09
  -9  -8  -8  304.67   72.29
  -9  -8  -8  192.98   84.09
   9   8   8  252.87  147.89
 -10  -8  -8  292.77   97.59
  -3   9   8  890.61  227.88
  -2   9   8   83.29   94.99
  -1   9   8   50.19   91.59
   0  -9  -8  369.06  112.79
   0   9   8  504.75  156.28
  -1  -9  -8   35.90   42.20
   1   9   8   79.59   89.89
  -2  -9  -8    7.80   33.00
   2   9   8  148.99   90.79
  -3  -9  -8  836.92  104.19
  -3  -9  -8  703.63  137.99
   3   9   8  731.33  158.38
  -4  -9  -8  409.56   71.49
  -4  -9  -8  475.25   75.19
  -4  -9  -8  293.77   84.79
   4   9   8  518.05  144.59
   4   9   8  216.88   87.29
  -5  -9  -8 1674.23  148.99
  -5  -9  -8 1404.26  200.58
  -5  -9  -8 1429.56  163.28
   5   9   8 1879.61  266.57
  -6  -9  -8 1640.94  222.38
  -6  -9  -8 1904.61  171.48
  -6  -9  -8 1748.72  161.88
   6   9   8 2244.58  316.27
  -7  -9  -8    5.80   28.90
  -7  -9  -8   77.59   41.50
   7   9   8   53.69   78.79
  -8  -9  -8   41.30   30.10
  -8  -9  -8  141.99   80.79
  -8  -9  -8   43.20   43.70
   8   9   8   20.40   75.59
  -9  -9  -8  -44.00   45.70
   9   9   8   27.70   78.39
 -10  -9  -8  492.05  125.49
  -1  10   8  338.27  134.69
   0  10   8  702.73  184.38
  -1 -10  -8  326.07   95.39
   1  10   8  536.05  155.08
  -2 -10  -8  -18.20   34.10
   2  10   8  -40.80   60.49
  -3 -10  -8   80.59   57.09
   3  10   8  198.38   88.89
  -4 -10  -8  162.38   67.69
  -4 -10  -8  137.19   43.80
   4  10   8  292.77  111.29
   4  10   8  122.39   76.89
  -5 -10  -8  -17.20   24.00
  -5 -10  -8   14.90   38.40
   5  10   8   14.10   53.89
  -6 -10  -8  144.89   74.09
  -6 -10  -8  266.17   65.49
   6  10   8  330.37  131.09
  -7 -10  -8  992.00  169.08
  -7 -10  -8  839.32  116.49
   7  10   8 1100.49  235.58
  -8 -10  -8   72.39   38.50
  -8 -10  -8   31.60   63.89
   8  10   8   76.29  100.89
  -9 -10  -8 1779.22  256.97
  -9 -10  -8 1517.85  176.58
   9  10   8 1440.76  303.57
   0  11   8  -39.70   86.29
   1  11   8  874.31  200.38
  -2 -11  -8 1226.48  197.08
   2  11   8 1109.39  218.98
  -3 -11  -8  155.38   70.69
   3  11   8  290.17  115.79
   3  11   8  187.08   88.19
  -4 -11  -8 1054.09  132.19
  -4 -11  -8  736.93  151.58
   4  11   8  513.85  141.29
   4  11   8  626.84  167.98
  -5 -11  -8    9.40   43.30
  -5 -11  -8   44.00   36.00
   5  11   8   22.20   54.69
  -6 -11  -8   21.80   52.39
  -6 -11  -8   51.59   37.90
   6  11   8  220.38  115.69
  -7 -11  -8  237.28   68.19
  -7 -11  -8  176.48   82.89
   7  11   8  263.97  132.69
  -8 -11  -8   10.40   34.20
   8  11   8  -88.49   85.29
  -3 -12  -8  -59.89   38.20
   3  12   8  -45.10   56.29
   3  12   8   -3.70   62.99
  -4 -12  -8  271.27   72.79
  -4 -12  -8  359.36  117.19
   4  12   8  174.88  117.19
  -5 -12  -8 1933.61  209.78
  -5 -12  -8 1817.22  270.47
   5  12   8 1612.24  282.27
  -6 -12  -8  150.78   78.69
  -6 -12  -8  133.39   53.99
   6  12   8   54.69  106.19
  -7 -12  -8  533.15  106.49
  -5 -10   9 1943.41  281.27
  -4 -10   9  442.76  124.89
   3  10  -9  741.33  161.58
  -3 -10   9  377.46  125.29
   2  10  -9  225.58  122.59
  -2 -10   9   38.60   64.79
   1  10  -9   11.00   90.09
  -1 -10   9   10.90   59.39
   7   9  -9  638.34  146.49
  -7  -9   9  576.44  153.78
  -6  -9   9  871.81  171.68
  -5  -9   9   14.80   62.29
  -4  -9   9   25.70   42.70
   3   9  -9  160.88   84.59
  -3  -9   9   -5.40   46.80
  -3  -9   9   91.29   76.59
   2   9  -9 2122.29  293.77
  -2  -9   9 1833.42  256.47
  -2  -9   9 1553.14  229.98
   1   9  -9 1849.81  289.27
  -1  -9   9 1546.95  232.88
   0   9  -9  271.17  112.69
   0  -9   9   66.69   67.19
  -1   9  -9  157.78  115.79
   1  -9   9  386.36  115.89
  -2   9  -9   44.30   93.39
   2  -9   9   -5.30   48.90
   7   8  -9 1112.89  187.08
  -7  -8   9 1279.97  206.38
  -6  -8   9  326.57  104.69
  -5  -8   9  386.76  120.99
  -4  -8   9   10.30   47.40
  -4  -8   9   -3.80   52.29
   3   8  -9 1034.30  177.68
  -3  -8   9 1066.29  171.58
  -3  -8   9 1301.37  198.08
   2   8  -9  283.37  109.59
  -2  -8   9  229.48   80.99
  -2  -8   9  392.86  112.89
   1   8  -9  152.08   86.29
  -1  -8   9   -5.80   44.10
   0   8  -9  155.68   97.39
   0  -8   9   -1.60   49.40
  -1   8  -9  920.11  199.98
   1  -8   9  821.52  152.38
  -2   8  -9 2371.36  349.37
   2  -8   9 1819.02  247.68
  -3   8  -9   38.60   61.99
  -3   8  -9   44.90   93.19
   3  -8   9   42.40   61.79
   8   7  -9 1655.43  224.08
  -8  -7   9 1831.12  294.97
   7   7  -9  409.76  104.59
  -7  -7   9  518.65  126.89
   6   7  -9  194.78   73.89
  -6  -7   9  187.58   90.59
  -5  -7   9   61.19   54.49
  -4  -7   9  787.32  152.58
   3   7  -9 1669.93  218.68
  -3  -7   9 1206.58  192.38
  -3  -7   9 2044.50  237.98
   2   7  -9  173.88   77.89
  -2  -7   9   42.80   45.00
  -2  -7   9   59.79   57.49
   1   7  -9  222.58   82.69
   1   7  -9  143.59   62.59
  -1  -7   9  236.38   85.79
   0   7  -9  336.67   98.19
   0   7  -9  435.26  129.99
   0  -7   9  291.77   88.79
  -1   7  -9  474.65  143.89
  -1   7  -9  653.53  133.69
   1  -7   9  524.85  118.89
  -2   7  -9  -45.10   54.29
  -2   7  -9   35.80   46.20
   2  -7   9   45.90   52.79
  -3   7  -9   81.09   83.19
  -3   7  -9   90.89   62.49
   3  -7   9   70.89   61.99
  -4   7  -9  153.58  113.09
  -4   7  -9  193.58   68.39
   4  -7   9  130.59   68.79
   8   6  -9   34.80   43.90
  -8  -6   9   83.29   77.89
   7   6  -9  528.35  111.09
  -7  -6   9  597.14  139.09
  -7  -6   9  533.85  141.19
   6   6  -9   -4.60   34.00
  -6  -6   9    2.30   38.80
  -5  -6   9 1777.72  239.38
  -4  -6   9 1717.93  235.58
   3   6  -9  373.36   88.29
  -3  -6   9  213.58   77.49
  -3  -6   9  353.86   90.89
   2   6  -9  478.85   79.19
   2   6  -9  590.84  114.59
  -2  -6   9  451.55  109.89
  -2  -6   9  392.56   99.49
   1   6  -9  255.77   77.79
   1   6  -9  121.39   66.99
   1   6  -9  286.77   72.59
  -1  -6   9  227.48   82.59
  -1  -6   9  203.78   75.39
   0   6  -9 2735.93  261.77
   0   6  -9 3087.89  339.87
   0  -6   9 2772.62  273.57
  -1   6  -9  160.18   65.09
  -1   6  -9  132.29   72.49
   1  -6   9  197.48   72.49
  -2   6  -9  307.27  108.79
  -2   6  -9  331.37   88.39
   2  -6   9  254.67   80.49
  -3   6  -9  161.38   96.69
  -3   6  -9  127.39   54.09
   3  -6   9   82.09   47.60
  -4   6  -9  500.75  111.89
  -4   6  -9  502.75  155.58
   4  -6   9  501.25  111.89
  -5   6  -9    6.40   41.20
  -5   6  -9    9.50   84.79
   5  -6   9   20.00   50.69
  -9  -5   9  208.98  105.59
  -8  -5   9  240.68  111.49
   7   5  -9  604.14  106.69
  -7  -5   9  364.36  117.29
  -7  -5   9  496.85  121.89
   6   5  -9   34.00   42.80
  -6  -5   9    9.90   43.90
  -6  -5   9   -8.60   38.50
  -5  -5   9  639.74  135.59
  -4  -5   9  242.78   85.29
   3   5  -9  831.42  120.99
  -3  -5   9 1013.50  160.88
  -3  -5   9 1111.79  174.18
   2   5  -9 1240.48  172.28
   2   5  -9 1210.38  161.78
   2   5  -9 1295.17  108.59
  -2  -5   9  982.30  155.38
  -2  -5   9 1259.87  191.88
   1   5  -9 2581.54  236.08
   1   5  -9 2390.16  237.38
  -1  -5   9 2693.83  298.17
  -1  -5   9 2399.56  231.48
   0   5  -9  595.54  105.99
   0   5  -9  208.98   81.79
   0  -5   9  535.55  116.69
  -1   5  -9  417.46  108.09
  -1   5  -9  533.65   98.89
   1  -5   9  427.66  100.29
  -2   5  -9   30.10   59.29
  -2   5  -9   34.80   40.80
  -2   5  -9    0.00   29.60
   2  -5   9  -15.40   23.50
  -3   5  -9 1946.11  197.38
  -3   5  -9 2465.55  317.17
  -3   5  -9 2153.68  229.48
   3  -5   9 1949.20  239.38
  -4   5  -9  870.31  138.09
  -4   5  -9 1295.97  190.38
  -4   5  -9 1064.29  211.68
   4  -5   9 1049.00  166.58
   4  -5   9 1087.89  198.28
  -5   5  -9  -42.40   59.79
  -5   5  -9   33.00   54.99
  -5   5  -9   31.50   35.70
   5  -5   9   33.00   72.59
   5  -5   9   12.50   43.80
  -6   5  -9   25.80   42.50
  -6   5  -9   70.69   72.99
   6  -5   9 -141.89   68.49
   6  -5   9  -24.40   45.40
  -9  -4   9  706.93  187.48
  -8  -4   9  657.73  172.28
   7   4  -9  396.26   85.89
  -7  -4   9  265.77  110.79
  -7  -4   9  308.87   94.79
   6   4  -9 1248.08  150.78
  -6  -4   9 1322.57  200.98
  -6  -4   9  953.90  193.08
   5   4  -9  618.64  100.59
  -5  -4   9  966.40  200.38
  -5  -4   9  710.13  142.79
  -4  -4   9 1453.65  212.48
  -3  -4   9   88.69   58.69
   2   4  -9  694.53  110.39
   2   4  -9  790.42  127.49
  -2  -4   9  755.12  138.59
  -2  -4   9  806.82  135.19
   1   4  -9   39.20   34.80
   1   4  -9   35.80   37.60
  -1  -4   9  104.59   48.60
  -1  -4   9    4.10   38.50
   0   4  -9 1125.49  147.49
   0   4  -9 1168.98  160.98
   0  -4   9 1219.88  177.98
  -1   4  -9  109.89   45.10
  -1   4  -9  131.89   64.49
  -1   4  -9   44.90   26.50
   1  -4   9   11.60   36.80
  -2   4  -9 1429.86  161.78
  -2   4  -9 1209.48  124.59
  -2   4  -9 1298.37  120.59
  -2   4  -9 1280.87  189.48
   2  -4   9 1278.47  173.48
  -3   4  -9  600.04  138.99
  -3   4  -9  465.05   90.59
  -3   4  -9  620.84  109.39
   3  -4   9  567.04  112.59
  -4   4  -9  496.85  114.49
  -4   4  -9  626.14  144.19
  -4   4  -9  831.42  116.29
   4  -4   9  436.96  121.19
  -5   4  -9  212.48   63.59
  -5   4  -9  107.29   67.89
  -5   4  -9  111.89   77.39
   5  -4   9   87.79   65.59
  -6   4  -9  736.93  122.09
  -6   4  -9  607.14  153.88
   6  -4   9  442.06  135.69
  -7   4  -9  990.20  196.78
  -7   4  -9 1290.57  181.88
   7  -4   9 1513.05  241.68
  -9  -3   9   79.29  105.99
  -8  -3   9  -25.80   69.29
  -7  -3   9   18.30   64.49
  -7  -3   9  101.89   47.50
   6   3  -9 1083.19  133.29
  -6  -3   9 1079.19  170.28
  -6  -3   9 1093.19  193.28
   5   3  -9 3119.39  250.47
  -5  -3   9 3477.85  317.27
  -5  -3   9 3027.20  297.57
  -4  -3   9   43.20   41.80
   3   3  -9 1294.57  162.18
  -3  -3   9 1447.16  204.08
   2   3  -9  484.05   72.39
   2   3  -9  273.07   68.19
  -2  -3   9  425.66   97.79
  -2  -3   9  488.55  102.49
   1   3  -9 1439.26  168.48
   1   3  -9 1606.14  118.59
   1   3  -9 1395.36  146.89
  -1  -3   9 2019.10  227.58
  -1  -3   9 1266.77  175.68
   0   3  -9 1798.62  164.98
   0   3  -9 1785.32  175.58
   0   3  -9 1908.31  170.28
   0  -3   9 1599.94  208.48
  -1   3  -9  531.45  105.69
  -1   3  -9  494.65   82.39
  -1   3  -9  716.63   90.99
  -1   3  -9  528.65   62.99
   1  -3   9  593.94  115.49
  -2   3  -9  685.93   94.39
  -2   3  -9  605.74   80.89
  -2   3  -9  593.74  119.99
  -2   3  -9  677.93   94.19
   2  -3   9  535.25  105.39
  -3   3  -9  849.02  145.29
  -3   3  -9  670.23   83.19
  -3   3  -9  835.52  109.09
  -3   3  -9  908.11  125.99
   3  -3   9  756.72  145.09
   3  -3   9  844.82  132.19
  -4   3  -9  103.59   49.40
  -4   3  -9  118.39   70.89
  -4   3  -9  110.69   40.10
   4  -3   9   13.80   42.70
  -5   3  -9  834.72  166.58
  -5   3  -9  979.30  129.29
  -5   3  -9 1263.07  187.78
   5  -3   9 1014.10  175.58
  -6   3  -9  665.53  142.89
  -6   3  -9  362.26   82.09
   6  -3   9  673.63  147.79
  -7   3  -9  336.37  122.99
  -7   3  -9  275.17   69.79
   7  -3   9   95.39   67.89
  -8   3  -9  626.44  114.89
  -8   3  -9  390.16  140.89
   8  -3   9  438.76  139.69
  -9  -2   9  -55.49   85.59
  -8  -2   9  136.79  104.19
  -7  -2   9    2.10   44.50
  -6  -2   9   53.99   40.90
  -6  -2   9  128.19   80.79
   5   2  -9  323.07   59.59
  -5  -2   9  318.17   96.69
  -5  -2   9  465.95  102.69
   4   2  -9  334.77   58.19
  -4  -2   9  315.57   87.29
  -4  -2   9  515.25  117.59
   3   2  -9  331.97   76.29
  -3  -2   9  214.28   71.69
   2   2  -9 3912.81  292.37
   2   2  -9 3949.10  291.07
   2   2  -9 4298.27  325.57
  -2  -2   9 5213.38  368.16
   1   2  -9  682.83   93.49
   1   2  -9  917.11  112.89
  -1  -2   9  813.72  134.49
  -1  -2   9  737.13  130.89
   0   2  -9 1248.28  134.99
   0   2  -9 1297.47  137.59
   0   2  -9 1090.19  102.99
   0   2  -9 1098.59  132.59
   0  -2   9 1200.98  169.28
  -1   2  -9  842.32   78.89
  -1   2  -9  914.21  126.69
  -1   2  -9  921.51  108.09
  -1   2  -9  940.21  108.29
   1  -2   9  821.22  136.69
  -2   2  -9 1344.87  123.09
  -2   2  -9 1220.38  123.89
  -2   2  -9 1333.77  122.69
  -2   2  -9 1408.86  127.29
  -2   2  -9 1449.76  106.29
  -2   2  -9 1249.38  169.08
  -3   2  -9 1488.35  139.99
  -3   2  -9 1319.17  185.98
  -3   2  -9 1050.09  108.49
  -3   2  -9 1310.17  137.39
  -3   2  -9 1455.45  119.69
  -3   2  -9 1140.09  109.19
   3  -2   9 1097.09  172.38
  -4   2  -9   43.10   26.20
  -4   2  -9   19.40   38.30
  -4   2  -9   64.99   50.49
  -4   2  -9   26.90   16.90
   4  -2   9   32.40   42.30
  -5   2  -9 1307.77  140.69
  -5   2  -9 1551.24  221.78
  -5   2  -9 1196.98  185.08
   5  -2   9  906.61  162.38
  -6   2  -9   30.50   58.89
  -6   2  -9   -3.40   24.80
   6  -2   9   22.50   48.20
  -7   2  -9  154.98   81.49
  -7   2  -9  195.38   65.69
   7  -2   9  168.28   80.39
  -8   2  -9  203.08  100.19
  -8   2  -9  195.68   65.09
   8  -2   9  106.59   79.89
  -8  -1   9  669.03  186.08
  -7  -1   9 3637.74  460.65
  -6  -1   9  544.15  157.28
   5   1  -9  255.07   49.50
  -5  -1   9  199.88   92.69
  -5  -1   9  255.07   71.39
   4   1  -9   31.10   20.70
  -4  -1   9   16.30   32.70
  -4  -1   9   35.30   47.50
   3   1  -9  575.14   97.39
  -3  -1   9  978.70  160.48
  -3  -1   9  751.72  128.69
   2   1  -9  931.81  118.39
   2   1  -9 1059.79  158.38
  -2  -1   9  923.81  145.49
   1   1  -9  352.36   52.89
   1   1  -9  313.37   57.79
   1   1  -9  436.96   70.89
   1   1  -9  299.57   47.90
   1   1  -9  307.27   71.29
  -1  -1   9  470.45  100.59
  -1  -1   9  436.76   98.69
   0   1  -9  155.58   40.80
   0   1  -9   65.59   38.00
   0   1  -9  185.78   33.50
   0   1  -9   99.09   32.10
   0   1  -9  114.79   39.20
   0   1  -9  158.08   34.40
   0  -1   9  164.08   62.29
  -1   1  -9 2181.58  174.18
  -1   1  -9 2239.38  174.78
  -1   1  -9 2156.68  192.38
  -1   1  -9 2057.49  172.98
  -1   1  -9 2312.97  170.28
  -2   1  -9 1527.55  135.29
  -2   1  -9 1744.43  154.68
  -2   1  -9 1691.13  138.69
  -2   1  -9 1828.02  172.78
  -2   1  -9 1891.81  140.49
  -3   1  -9  198.68   62.69
  -3   1  -9   75.49   42.20
  -3   1  -9   94.89   28.10
  -3   1  -9   87.79   28.10
  -4   1  -9  655.43  122.29
  -4   1  -9  573.64   66.39
  -4   1  -9  590.74   74.89
  -4   1  -9  528.85  105.59
  -5   1  -9  613.44  127.19
  -5   1  -9  711.63  131.49
  -5   1  -9  677.53   89.19
   5  -1   9  543.95  115.29
  -6   1  -9 1217.08  140.09
  -6   1  -9 1318.57  206.08
  -6   1  -9 1187.78  191.48
   6  -1   9 1355.26  195.68
  -7   1  -9  469.45   86.89
  -7   1  -9  411.56  128.79
   7  -1   9  441.86  123.39
  -8   1  -9  740.73  188.98
  -8   1  -9  523.55   98.19
   8  -1   9  365.66  117.79
  -9   1  -9   91.79   82.39
  -9   1  -9   69.49   43.50
   9  -1   9   68.39   72.99
   8   0  -9    4.40   40.70
   8   0  -9   62.29   71.89
  -8   0   9   10.50   92.29
   7   0  -9    3.30   34.40
  -7   0   9    3.90   70.39
   6   0  -9  238.98   63.09
  -6   0   9  587.24  161.08
   5   0  -9    0.60   28.20
  -5   0   9   93.49   68.89
   4   0  -9 3817.22  309.57
   4   0  -9 4001.30  272.57
  -4   0   9 3847.72  368.06
   3   0  -9 2019.60  194.68
   3   0  -9 2286.77  200.28
   3   0  -9 2252.37  161.68
  -3   0   9 2415.76  214.08
  -3   0   9 2824.32  260.97
   2   0  -9   10.80   20.00
   2   0  -9   18.00   24.70
  -2   0   9   -3.60   21.90
   1   0  -9   42.60   25.30
   1   0  -9   70.59   29.20
   1   0  -9   57.79   14.60
   1   0  -9   15.00   26.20
  -1   0   9   59.99   39.80
   0   0  -9   16.80   18.40
   0   0  -9   28.80   29.60
   0   0  -9    1.50   14.60
   0   0  -9   50.59   23.50
   0   0  -9    0.40   36.90
  -1   0  -9 2631.44  187.28
  -1   0  -9 2431.26  184.08
  -1   0  -9 1887.21  255.07
  -1   0  -9 2592.94  204.28
  -2   0  -9  -17.20   18.50
  -2   0  -9   25.70   14.00
  -2   0  -9   42.80   28.10
  -2   0  -9   29.90   14.40
  -3   0  -9  638.84  108.09
  -3   0  -9  478.55   54.39
  -3   0  -9  342.27   81.09
  -3   0  -9  388.36   49.20
  -4   0  -9  148.09   58.69
  -4   0  -9  262.57   45.50
  -4   0  -9  228.68   38.70
  -4   0  -9  255.87   73.49
  -4   0  -9  200.18   33.80
  -5   0  -9 2744.73  269.77
  -5   0  -9 2983.90  270.57
  -5   0  -9 2916.61  211.88
  -5   0  -9 2642.04  190.48
  -6   0  -9  -38.60   28.30
  -6   0  -9   -5.90   51.89
  -6   0  -9    7.20   21.20
  -7   0  -9  310.37   65.69
  -7   0  -9  341.87  118.19
  -8   0  -9  284.47   70.49
  -8   0  -9  213.78  104.89
   8   0   9  288.97   93.09
  -9   0  -9  819.72  126.39
  -9   0  -9  909.61  216.08
   9   0   9  601.34  143.09
   8  -1  -9  214.88   75.09
   8  -1  -9  416.36  116.29
  -8   1   9  232.18  123.19
   7  -1  -9   22.50   58.59
   7  -1  -9   33.50   39.70
  -7   1   9  -27.20   68.29
   6  -1  -9  253.27   67.69
  -6   1   9  161.48   92.09
   5  -1  -9   62.29   35.50
  -5   1   9   98.79   68.99
   4  -1  -9  135.09   44.10
  -4   1   9  177.68   89.29
   3  -1  -9  240.88   53.99
   3  -1  -9  206.18   53.59
  -3   1   9  322.97  102.99
   2  -1  -9  278.07   78.69
   2  -1  -9  312.67   63.19
   2  -1  -9  321.47   62.49
  -2   1   9  327.27   71.19
  -2   1   9  438.56  117.09
   1  -1  -9 3339.47  232.48
   1  -1  -9 3420.16  270.57
   1  -1  -9 3263.57  250.57
   1  -1  -9 3706.13  307.17
   1  -1  -9 3279.87  251.67
  -1   1   9 3271.17  272.87
   0  -1  -9 5520.75  384.96
   0  -1  -9 5389.16  383.76
   0  -1  -9 5366.56  384.66
   0  -1  -9 5821.52  386.86
   0  -1  -9 5736.13  419.16
   0  -1  -9 5401.56  451.05
  -1  -1  -9  221.78   32.60
  -1  -1  -9  212.68   30.90
  -1  -1  -9  212.58   72.59
  -2  -1  -9  175.18   22.20
  -2  -1  -9  139.49   22.20
  -3  -1  -9   72.99   14.30
  -3  -1  -9   54.69   13.60
  -3  -1  -9   72.39   40.80
  -4  -1  -9 1953.10  146.39
  -4  -1  -9 2051.69  210.68
  -4  -1  -9 1876.11  151.18
  -4  -1  -9 2114.49  150.48
  -4  -1  -9 2066.39  197.98
  -5  -1  -9  967.90   94.29
  -5  -1  -9 1110.69   91.69
  -5  -1  -9 1022.50   82.79
  -5  -1  -9 1018.40   83.49
  -5  -1  -9 1045.40  158.18
  -5  -1  -9  974.30  168.28
  -6  -1  -9  219.08   45.10
  -6  -1  -9  205.38   24.90
  -6  -1  -9  164.68   78.89
  -6  -1  -9  188.18   73.49
  -7  -1  -9   18.80   52.59
  -7  -1  -9   -8.30   19.30
   7   1   9  -19.60   27.60
  -8  -1  -9 1089.19  226.68
  -8  -1  -9 1419.26  163.58
  -9  -1  -9  841.32  209.58
  -9  -1  -9  502.75   96.79
 -10  -1  -9  -54.09   83.69
 -10  -1  -9   13.40   44.80
   7  -2  -9  154.18   78.79
   7  -2  -9  363.06   86.89
  -7   2   9  210.48  107.09
   6  -2  -9 1287.97  154.68
   6  -2  -9 1158.78  173.98
  -6   2   9 1206.38  223.48
   5  -2  -9 1826.02  172.08
  -5   2   9 1763.22  274.97
   4  -2  -9   50.39   30.70
  -4   2   9   -0.70   50.29
   3  -2  -9  129.39   38.30
   3  -2  -9  156.98   60.09
   3  -2  -9  178.58   54.09
  -3   2   9  147.99   81.09
   2  -2  -9   27.60   26.20
   2  -2  -9    7.00   18.90
   2  -2  -9   42.30   39.40
  -2   2   9   21.10   47.80
   1  -2  -9  294.77   53.09
   1  -2  -9  196.18   62.69
   1  -2  -9  159.08   41.00
   1  -2  -9  224.28   50.89
   1  -2  -9  286.67   38.40
  -1   2   9  204.48   77.79
   0  -2  -9   19.80   15.70
   0  -2  -9   36.00   40.00
   0  -2  -9   20.10   12.10
   0  -2  -9   45.70   26.50
   0  -2  -9   25.00   16.70
   0  -2  -9   26.50   16.80
  -1  -2  -9 1359.76  107.59
  -1  -2  -9 1465.75  191.88
  -1  -2  -9 1545.95  110.49
  -1  -2  -9 1410.16  140.49
  -2  -2  -9  115.19   14.50
  -2  -2  -9   83.09   28.30
  -2  -2  -9  131.89   15.50
  -2  -2  -9   26.30   40.30
  -3  -2  -9 4511.75  325.07
  -4  -2  -9  941.31   70.99
  -4  -2  -9  907.71   74.09
  -4  -2  -9  817.62   79.39
  -4  -2  -9  668.33  130.09
  -5  -2  -9   22.30   15.50
  -5  -2  -9  119.19   66.39
  -5  -2  -9   27.30   18.20
  -5  -2  -9   13.30   13.30
  -5  -2  -9   70.49   22.90
  -6  -2  -9   18.40   11.40
  -6  -2  -9  -16.40   49.99
  -6  -2  -9    8.70   10.40
  -6  -2  -9    1.00   15.80
  -7  -2  -9  680.43   95.29
  -7  -2  -9  551.24  149.49
   7   2   9  847.02  154.28
  -8  -2  -9  971.80  211.28
  -8  -2  -9 1267.17  146.99
   8   2   9  998.80  163.28
  -9  -2  -9   55.89   88.59
  -9  -2  -9  -12.30   30.70
   9   2   9  -50.99   31.20
 -10  -2  -9  161.28   61.99
 -10  -2  -9  166.28  118.89
   7  -3  -9   52.89   58.99
   7  -3  -9   89.39   53.59
  -7   3   9   60.59   62.99
   6  -3  -9    6.30   47.10
   6  -3  -9   61.59   48.10
  -6   3   9   16.60   53.99
  -6   3   9   57.99   64.69
   5  -3  -9 1320.57  213.08
   5  -3  -9 1050.89  150.38
   5  -3  -9  907.71  122.59
  -5   3   9  826.92  175.68
   4  -3  -9 1197.08  137.79
   4  -3  -9 1318.07  182.48
  -4   3   9 1233.78  212.18
   3  -3  -9  492.55   85.39
   3  -3  -9  347.07   62.59
   3  -3  -9  333.27   87.69
  -3   3   9  334.07  106.89
   2  -3  -9 3537.35  295.57
   2  -3  -9 3179.08  271.57
   2  -3  -9 3776.22  267.17
  -2   3   9 3256.27  316.97
   1  -3  -9  696.63   88.69
   1  -3  -9  815.92   97.09
   1  -3  -9  726.73  116.69
   1  -3  -9  832.42   82.19
  -1   3   9  899.11  150.48
   0  -3  -9  409.26   62.99
   0  -3  -9  303.17   49.50
   0  -3  -9  290.37   68.69
   0  -3  -9  241.68   45.80
   0   3   9  298.77   81.39
  -1  -3  -9  425.36   53.19
  -1  -3  -9  402.16   69.79
  -1  -3  -9  483.05   56.79
  -1  -3  -9  556.94   95.89
  -1  -3  -9  488.65   73.09
  -2  -3  -9   65.99   26.40
  -2  -3  -9   67.49   17.60
  -2  -3  -9   53.29   26.60
  -2  -3  -9   86.59   17.50
  -2  -3  -9   43.10   39.60
  -3  -3  -9  463.45   63.39
  -3  -3  -9  313.37   80.69
  -3  -3  -9  503.55   64.59
  -3  -3  -9  469.35   42.80
  -3  -3  -9  435.96   39.70
  -4  -3  -9  694.53   60.59
  -4  -3  -9  682.63   76.59
  -4  -3  -9  657.83   76.49
  -4  -3  -9  666.83   73.89
  -5  -3  -9  157.88   29.30
  -5  -3  -9  226.18   38.20
  -5  -3  -9  124.99   29.10
  -5  -3  -9  153.88   35.20
  -5  -3  -9   66.09   53.79
  -6  -3  -9 2973.10  297.67
  -6  -3  -9 2746.73  200.28
  -6  -3  -9 2945.21  216.48
  -6  -3  -9 2751.12  207.08
  -7  -3  -9 1938.11  164.88
  -7  -3  -9 2605.84  324.57
  -7  -3  -9 1802.32  146.59
  -8  -3  -9   96.79   42.40
  -8  -3  -9   14.80   67.79
   8   3   9  150.48   67.19
  -9  -3  -9  160.08  101.99
  -9  -3  -9  142.99   58.49
   9   3   9   62.69   54.99
 -10  -3  -9   41.80   46.20
  10   3   9   75.29   67.49
   7  -4  -9  239.58   82.59
   6  -4  -9   80.39   49.80
  -6   4   9  142.19   78.79
  -6   4   9   26.60   74.19
   5  -4  -9  -61.49   31.30
   5  -4  -9  -22.10   26.30
  -5   4   9  -67.99   46.60
  -5   4   9    6.10   39.30
   4  -4  -9  228.28   57.39
   4  -4  -9  134.29   52.29
   4  -4  -9  258.77   84.59
  -4   4   9  328.67  111.59
  -4   4   9  148.59   70.79
   3  -4  -9   94.49   49.10
   3  -4  -9   94.09   36.00
   3  -4  -9   66.69   37.70
  -3   4   9  114.99   66.29
  -3   4   9  103.99   70.59
   2  -4  -9  347.07   70.89
   2  -4  -9  396.06   63.39
   2  -4  -9  361.76   80.69
  -2   4   9  463.15  109.09
   1  -4  -9 4773.52  345.07
   1  -4  -9 4584.54  359.36
   1  -4  -9 4395.46  326.97
  -1   4   9 4491.35  377.66
   0  -4  -9  105.19   37.70
   0  -4  -9  106.19   35.70
   0  -4  -9  122.89   43.70
   0  -4  -9   68.99   23.90
   0   4   9  107.59   51.29
  -1  -4  -9 3519.55  269.47
  -1  -4  -9 3336.57  249.88
  -1  -4  -9 3337.17  245.38
  -1  -4  -9 3430.26  247.48
  -1  -4  -9 3188.58  240.68
  -1  -4  -9 3251.87  267.17
  -1  -4  -9 3114.79  246.88
  -2  -4  -9 1890.01  140.59
  -2  -4  -9 1599.04  152.48
  -2  -4  -9 1819.82  154.18
  -2  -4  -9 1906.01  151.98
  -2  -4  -9 1871.51  144.09
  -2  -4  -9 1947.01  171.68
  -3  -4  -9  375.26   50.69
  -3  -4  -9  232.88   60.59
  -3  -4  -9  260.07   48.20
  -3  -4  -9  292.37   48.90
  -3  -4  -9  232.98   38.10
  -4  -4  -9  717.23   79.59
  -4  -4  -9  572.64  101.89
  -4  -4  -9  684.03   74.39
  -4  -4  -9  719.63   78.19
  -4  -4  -9  510.65   68.39
  -5  -4  -9   13.70   15.60
  -5  -4  -9    6.00   11.10
  -5  -4  -9   29.40   26.30
  -5  -4  -9   17.60   17.20
  -6  -4  -9  697.93   76.49
  -6  -4  -9  815.82   87.39
  -6  -4  -9  577.44  147.59
  -6  -4  -9  899.71   98.59
  -7  -4  -9   85.59   24.40
  -7  -4  -9  145.89   41.50
  -7  -4  -9   44.30   63.59
  -7  -4  -9  141.39   33.10
  -8  -4  -9  350.76   71.19
  -8  -4  -9  355.76  132.99
  -9  -4  -9  392.46  154.48
  -9  -4  -9  665.43  107.69
   9   4   9  334.47   94.79
 -10  -4  -9  824.12  132.39
 -10  -4  -9 1346.97  257.87
  10   4   9  987.30  168.78
   6  -5  -9 1636.34  191.08
  -6   5   9 1004.10  225.38
   5  -5  -9   16.20   35.40
  -5   5   9    9.00   44.30
  -5   5   9   71.79   77.19
   4  -5  -9  917.31  123.79
   4  -5  -9 1046.20  170.28
  -4   5   9  940.41  197.28
  -4   5   9 1109.99  171.98
   3  -5  -9  183.28   49.60
   3  -5  -9  164.68   67.29
  -3   5   9  137.39   90.29
  -3   5   9  228.08   77.99
   2  -5  -9   65.69   26.20
   2  -5  -9   24.00   33.00
   2  -5  -9   15.50   21.20
   2  -5  -9   37.70   37.60
  -2   5   9   79.19   48.90
  -2   5   9   14.20   56.59
   1  -5  -9  245.48   65.09
   1  -5  -9  217.88   60.09
   1  -5  -9  327.87   42.10
   1  -5  -9  217.68   42.30
  -1   5   9   76.19   81.89
  -1   5   9  215.68   72.59
   0  -5  -9   40.60   27.50
   0  -5  -9   20.80   16.20
   0  -5  -9   38.60   27.20
   0  -5  -9   53.09   19.50
   0   5   9   22.10   33.30
   0   5   9   47.30   55.29
  -1  -5  -9    5.40    9.60
  -1  -5  -9   -1.20   18.90
  -1  -5  -9    3.80   15.40
  -1  -5  -9    5.60   19.90
  -1  -5  -9   12.70   13.10
   1   5   9   37.10   32.60
  -2  -5  -9 2624.84  192.08
  -2  -5  -9 2787.52  197.68
  -2  -5  -9 2979.60  214.78
  -2  -5  -9 2881.01  220.08
  -2  -5  -9 2820.12  209.78
  -2  -5  -9 2346.67  208.18
  -2  -5  -9 2578.94  204.78
  -3  -5  -9 1779.12  151.78
  -3  -5  -9 1845.82  156.78
  -3  -5  -9 1930.01  157.98
  -3  -5  -9 1830.22  150.28
  -3  -5  -9 1890.51  153.18
  -3  -5  -9 2081.19  163.98
  -4  -5  -9 1285.17  119.89
  -4  -5  -9 1451.35  130.19
  -4  -5  -9 1363.36  123.29
  -4  -5  -9 1394.76  127.49
  -4  -5  -9 1486.25  120.49
  -5  -5  -9 1662.43  143.59
  -5  -5  -9 1891.11  141.59
  -5  -5  -9 1614.34  158.38
  -6  -5  -9  387.26   83.29
  -6  -5  -9  486.15   68.09
  -6  -5  -9  544.25   81.99
  -6  -5  -9  485.45   63.49
  -6  -5  -9  525.45  130.59
  -7  -5  -9  396.26   55.39
  -7  -5  -9  377.06   72.39
  -7  -5  -9  396.46   60.99
  -7  -5  -9  180.68   91.69
  -8  -5  -9  265.87   62.29
  -8  -5  -9  190.48   98.99
  -9  -5  -9  105.89  104.69
  -9  -5  -9  292.77   76.59
   9   5   9  363.86   89.79
 -10  -5  -9   17.20   38.50
 -10  -5  -9  166.98  107.09
  10   5   9   13.00   47.90
   5  -6  -9   23.80   40.50
  -5   6   9  -40.10   80.29
   4  -6  -9  386.56   76.79
  -4   6   9  307.97   88.59
  -4   6   9  470.45  164.08
   3  -6  -9 2863.61  262.37
   3  -6  -9 2829.22  221.98
  -3   6   9 2511.15  359.66
  -3   6   9 2284.87  240.48
   2  -6  -9 1388.86  181.78
   2  -6  -9 1089.59  161.38
   2  -6  -9 1308.37  122.39
  -2   6   9 1529.05  192.78
  -2   6   9 1307.27  235.68
   1  -6  -9  299.67   74.39
   1  -6  -9  366.96   57.09
   1  -6  -9  399.26   87.59
  -1   6   9  571.34  110.19
  -1   6   9  361.26  131.89
   0  -6  -9  394.66   76.39
   0  -6  -9  475.05   84.59
   0  -6  -9  371.86   50.29
   0   6   9  379.66  119.59
  -1  -6  -9   38.20   32.60
  -1  -6  -9   26.50   25.30
  -1  -6  -9   39.00   15.80
   1   6   9  -10.30   50.59
  -2  -6  -9  119.39   37.30
  -2  -6  -9   76.49   37.40
  -2  -6  -9  121.79   20.30
  -2  -6  -9  151.58   36.00
  -2  -6  -9  187.48   48.20
   2   6   9   48.10   59.19
  -3  -6  -9   93.99   33.10
  -3  -6  -9   95.39   36.50
  -3  -6  -9  143.59   18.90
  -3  -6  -9   73.79   29.30
  -3  -6  -9   99.09   35.70
  -4  -6  -9   39.00   21.10
  -4  -6  -9   20.00   19.50
  -4  -6  -9   55.59   19.60
  -4  -6  -9   67.19   23.50
  -4  -6  -9   84.99   38.60
  -5  -6  -9  896.71  121.19
  -5  -6  -9  846.62   75.49
  -5  -6  -9  893.41   97.69
  -5  -6  -9  890.61  103.59
  -6  -6  -9 2227.28  191.98
  -6  -6  -9 2034.60  167.88
  -6  -6  -9 2109.69  175.28
  -7  -6  -9   -7.40   17.40
  -7  -6  -9   29.00   31.00
  -7  -6  -9   23.70   19.40
   7   6   9  -15.70   51.39
  -8  -6  -9 1415.16  131.69
  -8  -6  -9 1215.38  159.58
  -9  -6  -9  627.84  108.59
 -10  -6  -9   60.99   54.49
  10   6   9  177.68   65.09
  -4   7   9  384.26  161.48
  -3   7   9   54.99   83.49
   2  -7  -9    3.70   38.40
   2  -7  -9   16.10   25.80
  -2   7   9   19.70   67.49
   1  -7  -9    1.50   20.20
   1  -7  -9    2.90   30.20
   1  -7  -9   -0.30   34.20
  -1   7   9   81.09   73.69
   0  -7  -9 2931.41  245.88
   0  -7  -9 2439.26  193.58
   0  -7  -9 2638.34  231.58
   0   7   9 3243.58  393.16
  -1  -7  -9 1751.92  135.49
   1   7   9 3696.63  380.46
  -2  -7  -9   17.90   20.60
  -2  -7  -9   44.10   26.00
  -2  -7  -9   45.00   31.90
   2   7   9    1.00   51.09
  -3  -7  -9 1328.07  134.29
  -3  -7  -9 1300.87  111.19
  -3  -7  -9  960.80   98.29
  -3  -7  -9  975.00  136.69
   3   7   9  977.50  188.28
  -4  -7  -9   15.50   17.40
  -4  -7  -9   -1.90   12.20
  -4  -7  -9    7.50   19.20
  -4  -7  -9    6.20   19.10
   4   7   9   12.10   43.70
  -5  -7  -9  406.36   85.49
  -5  -7  -9  243.78   53.39
  -5  -7  -9  343.97   55.89
  -6  -7  -9  330.47   61.49
  -6  -7  -9  293.47   69.99
  -6  -7  -9  333.27   60.39
  -7  -7  -9   24.70   23.30
  -7  -7  -9  108.79   37.10
  -7  -7  -9  150.18   58.39
   7   7   9  237.18  114.59
  -8  -7  -9   63.09   42.90
  -8  -7  -9   20.90   25.90
  -8  -7  -9   26.10   25.00
   8   7   9   91.29   85.09
  -9  -7  -9 1219.38  167.48
 -10  -7  -9  111.59   55.29
  -3   8   9   71.39   92.99
   2  -8  -9   25.70   47.80
  -2   8   9   35.90   97.99
   1  -8  -9  482.05  107.69
   1  -8  -9  259.67   78.79
  -1   8   9  660.03  175.58
   0  -8  -9   48.70   42.30
   0  -8  -9   73.89   45.30
   0   8   9  -15.10   71.79
  -1  -8  -9   38.80   38.80
  -1  -8  -9   40.70   32.70
   1   8   9   90.49   72.59
  -2  -8  -9   66.19   35.50
  -2  -8  -9   87.49   44.80
   2   8   9  222.18   94.69
  -3  -8  -9  397.36   69.89
  -3  -8  -9  458.65   94.09
   3   8   9  792.92  162.88
  -4  -8  -9 2981.80  242.38
  -4  -8  -9 2941.81  246.48
  -4  -8  -9 3483.05  276.07
  -5  -8  -9  325.07   87.39
  -5  -8  -9  429.06   71.69
  -5  -8  -9  208.98   52.99
  -6  -8  -9  424.86   73.89
  -6  -8  -9  604.34   83.69
  -6  -8  -9  276.87   79.59
   6   8   9  452.35  128.89
  -7  -8  -9   50.59   48.60
  -7  -8  -9  129.09   46.40
  -7  -8  -9  201.78   50.29
   7   8   9   16.80   54.49
  -8  -8  -9   37.40   41.50
  -8  -8  -9   26.10   26.10
  -8  -8  -9  -48.20   20.00
   8   8   9   -2.80   77.99
  -9  -8  -9  258.87   87.19
   9   8   9  371.36  163.28
 -10  -8  -9   36.30   43.90
  -2   9   9  487.15  184.48
  -1   9   9 1593.14  300.47
   0  -9  -9    9.10   40.40
   0   9   9   56.99   87.29
  -1  -9  -9  138.69   63.29
   1   9   9   63.89   81.89
  -2  -9  -9  310.67   89.99
   2   9   9  347.87  125.29
  -3  -9  -9   72.69   33.30
  -3  -9  -9   93.99   48.90
   3   9   9  122.39   81.89
  -4  -9  -9   21.70   24.40
  -4  -9  -9  -33.20   17.00
  -4  -9  -9   26.10   29.50
   4   9   9    1.10   58.49
  -5  -9  -9   41.30   39.30
  -5  -9  -9   72.69   33.40
  -5  -9  -9   44.70   27.70
  -6  -9  -9   88.49   36.80
  -6  -9  -9  -18.10   32.90
  -6  -9  -9   32.00   30.30
   6   9   9  -23.80   45.80
  -7  -9  -9 1971.00  181.68
  -7  -9  -9 2108.49  192.38
   7   9   9 2356.06  341.57
  -8  -9  -9 1326.47  164.18
  -8  -9  -9 1302.27  196.68
  -8  -9  -9 1230.48  148.09
   8   9   9 1441.56  277.37
  -9  -9  -9  265.97   96.09
   9   9   9  384.46  150.58
 -10  -9  -9  242.28   98.09
  -1  10   9  119.99  112.69
   0 -10  -9  540.45  139.89
   0  10   9  506.15  175.48
  -1 -10  -9   -5.40   41.90
   1  10   9   27.00   71.69
  -2 -10  -9 1459.95  215.88
   2  10   9 2063.39  302.97
  -3 -10  -9  654.63  138.69
  -3 -10  -9  624.14   97.89
   3  10   9  908.31  190.38
  -4 -10  -9   64.99   36.50
  -4 -10  -9   39.50   40.40
   4  10   9  115.69   76.29
  -5 -10  -9   -5.60   24.60
  -5 -10  -9    0.10   35.80
   5  10   9  -29.60   47.00
  -6 -10  -9  155.48   49.80
  -6 -10  -9  193.18   83.29
   6  10   9  358.06  136.39
  -7 -10  -9  -13.60   24.60
  -7 -10  -9   25.60   49.80
   7  10   9  -35.70   74.69
  -8 -10  -9  -63.39   60.59
  -8 -10  -9  -20.70   28.80
   8  10   9   -5.50   79.29
  -9 -10  -9  114.79   67.29
   9  10   9   62.89  100.19
  -1 -11  -9  366.56  111.39
   1  11   9  388.46  151.38
  -2 -11  -9   25.20   35.80
   2  11   9   50.99   83.89
  -3 -11  -9  374.36  109.49
   3  11   9  549.45  162.38
  -4 -11  -9  246.08   88.49
  -4 -11  -9  135.59   52.19
   4  11   9   52.49   82.99
   4  11   9  193.98  102.19
  -5 -11  -9  691.13  148.59
  -5 -11  -9 1111.19  140.59
   5  11   9  740.93  178.38
  -6 -11  -9 1136.29  191.38
  -6 -11  -9 1239.58  159.58
   6  11   9 1242.68  250.47
  -7 -11  -9   29.70   36.40
  -7 -11  -9   67.39   56.89
   7  11   9   22.30   90.99
  -8 -11  -9   17.50   35.00
   8  11   9  -61.09   74.49
  -3 -12  -9  -26.80   45.70
   3  12   9  -38.20   79.79
  -4 -12  -9  325.67   81.59
  -4 -12  -9  381.86  120.99
   4  12   9  541.65  150.58
   4  12   9  345.17  136.09
  -5 -12  -9   66.79   65.79
  -5 -12  -9  199.18   63.39
   5  12   9  235.88  111.89
  -6 -12  -9  225.08   69.39
  -6 -12  -9   70.49   71.19
   6  12   9  246.08  139.69
   3  10 -10  862.61  186.98
  -3 -10  10  536.45  141.09
   2  10 -10  -23.50   71.99
  -2 -10  10   52.59   53.69
  -6  -9  10  165.98   88.99
  -5  -9  10  359.76  116.69
  -4  -9  10  613.04  145.69
   3   9 -10  202.88   87.19
  -3  -9  10  205.38   81.39
  -3  -9  10  375.56  106.69
   2   9 -10  940.11  180.88
  -2  -9  10 1011.20  182.98
  -2  -9  10  372.16  115.59
   1   9 -10  363.26  114.59
  -1  -9  10  571.84  128.79
   0   9 -10  684.03  178.88
   0  -9  10  741.43  158.48
  -1   9 -10  196.38  121.69
   1  -9  10  287.97  102.79
   7   8 -10  306.77  102.69
  -7  -8  10  381.96  120.99
  -6  -8  10  286.47  107.29
  -5  -8  10  980.60  181.78
  -4  -8  10  192.18   82.69
   3   8 -10  515.95  120.59
  -3  -8  10  472.75  124.89
  -3  -8  10  287.37   94.59
   2   8 -10  -35.20   47.10
  -2  -8  10   73.09   62.79
  -2  -8  10   52.89   55.39
   1   8 -10 1122.59  209.08
  -1  -8  10  845.02  162.88
   0   8 -10   55.39   64.59
   0  -8  10    4.50   50.49
  -1   8 -10  506.45  164.18
  -1   8 -10  629.34  146.69
   1  -8  10  712.73  140.19
  -2   8 -10  253.27  139.19
  -2   8 -10  195.78   91.99
   2  -8  10  341.07  100.79
  -3   8 -10  975.30  164.88
  -3   8 -10  670.73  189.18
   3  -8  10  283.67  103.29
   7   7 -10 1007.40  163.68
  -7  -7  10 1315.77  219.88
   6   7 -10 2512.65  268.37
  -6  -7  10 1835.52  272.97
  -5  -7  10   -0.20   52.39
  -4  -7  10  463.55  123.19
   3   7 -10  222.78   79.19
  -3  -7  10   54.69   45.30
  -3  -7  10  175.98   84.89
   2   7 -10 1026.90  171.28
  -2  -7  10 1173.58  192.68
  -2  -7  10  910.01  163.28
   1   7 -10 1117.79  175.28
   1   7 -10  749.73  159.08
  -1  -7  10 1067.79  177.28
   0   7 -10  187.78   72.99
   0   7 -10  172.58   94.59
   0  -7  10  366.76  107.99
  -1   7 -10  141.59   66.99
  -1   7 -10  286.57  119.29
   1  -7  10  138.09   64.89
  -2   7 -10  385.06  138.99
  -2   7 -10  361.26   96.79
   2  -7  10  596.84  130.19
  -3   7 -10  226.28   81.49
  -3   7 -10  114.39   87.49
   3  -7  10  246.28   89.59
  -4   7 -10  397.76  108.29
  -4   7 -10  339.47  130.79
   4  -7  10  364.76  108.59
  -8  -6  10  -28.40   56.79
   7   6 -10  114.89   58.99
  -7  -6  10   84.49   72.29
  -7  -6  10  146.49   88.59
   6   6 -10  120.99   54.29
  -6  -6  10   15.30   49.90
  -5  -6  10  196.48   85.39
  -4  -6  10  174.68   74.39
   3   6 -10 2542.95  253.47
  -3  -6  10 3424.66  298.47
  -3  -6  10 2966.20  280.77
   2   6 -10  876.81  152.58
   2   6 -10  845.92  140.69
  -2  -6  10  597.14  131.99
  -2  -6  10  550.74  121.39
   1   6 -10  181.18   54.99
   1   6 -10  125.29   62.79
   1   6 -10  102.89   61.19
  -1  -6  10  159.98   73.29
   0   6 -10  312.57   88.19
   0   6 -10  244.98   92.79
   0  -6  10  317.97   97.29
  -1   6 -10 1176.08  197.18
  -1   6 -10  830.72  141.19
   1  -6  10 1241.08  188.78
  -2   6 -10 1607.04  197.58
  -2   6 -10 1380.06  233.58
   2  -6  10 1138.09  189.48
  -3   6 -10   -6.30   27.70
  -3   6 -10  -15.20   68.69
   3  -6  10   52.09   50.99
  -4   6 -10  623.64  119.09
  -4   6 -10  717.23  179.48
   4  -6  10  225.88   80.49
  -5   6 -10   59.39   54.09
  -5   6 -10  209.38  114.69
   5  -6  10  152.68   74.79
  -8  -5  10 1589.74  263.87
  -7  -5  10  275.87   94.69
  -7  -5  10  332.67  127.59
   6   5 -10  -34.50   28.00
  -6  -5  10    5.20   60.79
  -6  -5  10   29.80   47.30
  -5  -5  10  112.69   59.99
  -4  -5  10  184.38   79.29
   3   5 -10 1062.19  138.59
   3   5 -10  997.10  174.08
  -3  -5  10 1212.68  178.38
  -3  -5  10  916.31  163.88
   2   5 -10  214.28   70.09
   2   5 -10  276.87   77.19
  -2  -5  10  163.68   75.89
  -2  -5  10  380.66   96.19
   1   5 -10    6.60   39.90
   1   5 -10  129.29   41.80
   1   5 -10   86.79   49.70
  -1  -5  10   23.50   42.60
  -1  -5  10   80.69   58.19
   0   5 -10 2441.56  233.08
   0   5 -10 2337.87  274.77
   0  -5  10 2659.43  303.27
  -1   5 -10 2155.88  251.97
  -1   5 -10 2255.07  287.37
   1  -5  10 2731.83  252.07
  -2   5 -10   31.10   34.20
  -2   5 -10    0.80   48.10
   2  -5  10   84.09   51.39
  -3   5 -10  163.78   60.29
  -3   5 -10  174.28   91.69
   3  -5  10   90.39   52.79
  -4   5 -10  491.65  142.09
  -4   5 -10  408.46   90.99
   4  -5  10  296.97   86.19
  -5   5 -10 2131.99  295.27
  -5   5 -10 1513.25  192.38
   5  -5  10  933.41  170.58
   5  -5  10 1183.98  218.68
  -6   5 -10  482.95  152.98
  -6   5 -10  280.47   79.19
   6  -5  10  308.57  132.89
  -8  -4  10   98.99   98.99
  -7  -4  10  789.22  171.28
  -7  -4  10  589.74  129.99
   6   4 -10   23.40   37.40
  -6  -4  10   65.39   60.59
  -6  -4  10  108.09   70.79
   5   4 -10 3000.10  248.98
  -5  -4  10 2951.40  295.67
  -4  -4  10 2204.88  281.47
   3   4 -10   33.20   40.20
  -3  -4  10  -23.40   29.60
   2   4 -10   46.30   33.10
   2   4 -10   25.40   30.50
  -2  -4  10   91.89   55.09
  -2  -4  10   11.50   38.90
   1   4 -10  -37.20   20.80
   1   4 -10   26.30   35.80
  -1  -4  10  -21.10   24.40
  -1  -4  10   50.49   40.90
   0   4 -10  942.41  145.29
   0   4 -10 1012.10  144.89
   0  -4  10 1226.58  184.68
  -1   4 -10   39.80   34.00
  -1   4 -10  104.29   55.89
   1  -4  10  -14.30   39.00
  -2   4 -10  494.75   74.69
  -2   4 -10  537.65   95.19
  -2   4 -10  633.54  134.59
  -2   4 -10  204.98   57.79
   2  -4  10  398.86   97.79
  -3   4 -10  385.36   81.49
  -3   4 -10  312.37  104.59
  -3   4 -10  605.64  102.09
   3  -4  10  246.88   79.59
  -4   4 -10 2680.13  238.68
  -4   4 -10 2420.16  315.67
  -4   4 -10 2230.38  213.28
   4  -4  10 2443.96  306.67
   4  -4  10 2319.17  236.58
  -5   4 -10  259.57  107.39
  -5   4 -10  259.77   68.79
  -5   4 -10   87.29   67.99
   5  -4  10   58.89   75.89
  -6   4 -10   26.60   39.00
  -6   4 -10  193.18   99.79
  -6   4 -10  111.99   81.99
   6  -4  10  111.39   80.19
  -7   4 -10   23.30   75.79
  -7   4 -10   17.60   40.20
   7  -4  10   21.00   71.09
  -8  -3  10  -23.50   63.39
  -7  -3  10  371.36  135.59
  -7  -3  10  307.77   92.59
  -6  -3  10  104.89   59.19
  -6  -3  10   55.69   67.89
   5   3 -10   48.60   32.40
  -5  -3  10   38.70   47.40
  -5  -3  10   34.10   41.00
  -4  -3  10 1111.69  183.08
   3   3 -10  796.62  126.19
  -3  -3  10  701.03  144.19
   2   3 -10 2645.44  236.38
   2   3 -10 2655.83  217.98
  -2  -3  10 2822.82  265.17
  -2  -3  10 3087.39  275.37
   1   3 -10 4199.38  288.17
   1   3 -10 4316.47  330.27
   1   3 -10 3901.41  330.57
   1   3 -10 4240.48  285.77
  -1  -3  10 4605.14  369.66
  -1  -3  10 4006.90  349.37
   0   3 -10  843.92  127.89
   0   3 -10 1096.89  137.49
   0  -3  10  757.82  136.09
  -1   3 -10   31.10   31.90
  -1   3 -10   47.10   41.80
  -1   3 -10   44.90   28.60
  -1   3 -10   68.99   19.40
   1  -3  10  128.29   56.29
  -2   3 -10   89.29   55.59
  -2   3 -10   31.00   25.10
  -2   3 -10   53.79   31.80
  -2   3 -10    3.50   25.40
   2  -3  10    7.30   31.70
  -3   3 -10  665.03   84.19
  -3   3 -10  737.63  111.29
  -3   3 -10  752.72  104.39
  -3   3 -10  799.12  149.99
   3  -3  10  577.14  131.69
   3  -3  10  751.92  131.29
  -4   3 -10  691.23  142.29
  -4   3 -10  502.65  102.49
  -4   3 -10  426.16   80.19
   4  -3  10  355.96  110.19
  -5   3 -10  518.95  133.89
  -5   3 -10  411.16   79.79
  -5   3 -10  327.67   95.49
   5  -3  10  166.68   87.59
  -6   3 -10   55.59   37.70
  -6   3 -10   80.19   68.09
  -6   3 -10  -41.30   41.00
   6  -3  10   25.90   59.99
  -7   3 -10 1352.56  229.98
  -7   3 -10 1010.20  146.69
  -8   3 -10  541.45  158.58
  -8   3 -10  561.24  113.79
   8  -3  10  362.06  133.19
  -8  -2  10  109.49  107.39
  -7  -2  10  791.42  194.28
  -6  -2  10 1336.47  238.98
  -6  -2  10 1300.07  187.58
   5   2 -10  -16.00   21.40
  -5  -2  10   -3.60   51.69
  -5  -2  10   41.20   42.80
   4   2 -10  180.98   73.09
   4   2 -10  177.18   44.20
  -4  -2  10  246.58   84.69
  -4  -2  10  170.68   82.29
   3   2 -10  221.98   62.29
  -3  -2  10  161.18   70.09
   2   2 -10   78.69   40.40
   2   2 -10   83.29   30.20
   2   2 -10  100.89   25.10
  -2  -2  10  206.48   74.99
   1   2 -10   99.09   41.40
   1   2 -10   74.39   32.60
  -1  -2  10  137.29   61.49
  -1  -2  10   62.09   45.60
   0   2 -10 2030.30  179.38
   0   2 -10 2099.39  186.38
   0   2 -10 2098.49  185.88
   0   2 -10 2188.58  169.68
   0  -2  10 2174.88  254.97
  -1   2 -10  108.69   28.80
  -1   2 -10   50.59   31.00
  -1   2 -10  123.09   46.60
  -1   2 -10  113.19   39.30
   1  -2  10  106.09   59.09
  -2   2 -10 4713.53  320.27
  -2   2 -10 3968.10  369.16
  -2   2 -10 4409.56  347.07
  -2   2 -10 4823.42  343.87
  -2   2 -10 4891.61  343.17
  -2   2 -10 4747.23  342.67
  -3   2 -10 1921.51  227.98
  -3   2 -10 1494.85  134.09
  -3   2 -10 1475.45  134.19
  -3   2 -10 1523.95  175.08
   3  -2  10 1080.89  185.78
  -4   2 -10   48.90   49.70
  -4   2 -10   46.70   30.10
  -4   2 -10   46.50   46.50
   4  -2  10  122.49   65.09
  -5   2 -10   65.59   35.00
  -5   2 -10  111.89   63.79
  -5   2 -10  119.29   62.79
   5  -2  10   51.19   53.49
  -6   2 -10  175.78   84.69
  -6   2 -10  279.27   63.89
  -6   2 -10  422.76  117.49
   6  -2  10  392.66  113.19
  -7   2 -10  965.80  182.48
  -7   2 -10 1253.77  148.19
   7  -2  10 1166.18  197.18
  -8   2 -10    1.40   31.40
  -8   2 -10  197.78  105.49
   8  -2  10   26.60   64.99
  -8  -1  10  155.88  117.29
  -7  -1  10   97.99   80.19
  -6  -1  10 1807.62  289.87
  -5  -1  10 2245.38  227.18
  -5  -1  10 2636.64  336.07
   4   1 -10  269.97   46.30
   4   1 -10  327.87   78.29
  -4  -1  10  156.28   73.69
  -4  -1  10  328.77   85.59
   3   1 -10 2792.82  225.18
   3   1 -10 2364.16  226.88
  -3  -1  10 2205.38  272.57
   2   1 -10  274.97   62.59
   2   1 -10   49.10   38.70
  -2  -1  10  206.28   73.49
   1   1 -10  193.68   36.90
   1   1 -10  109.39   34.70
   1   1 -10  151.68   47.30
   1   1 -10  170.48   37.10
   1   1 -10  188.78   56.89
  -1  -1  10  128.79   60.69
  -1  -1  10  231.78   68.39
   0   1 -10 1110.69   95.09
   0   1 -10 1166.48   93.99
   0   1 -10  979.30  104.29
   0   1 -10 1185.38  152.98
   0   1 -10 1212.98  126.79
   0   1 -10  918.81  113.69
   0  -1  10 1151.18  165.98
  -1   1 -10   15.40   29.10
  -1   1 -10   25.20   18.40
  -1   1 -10    4.20   18.40
  -1   1 -10   32.00   24.30
  -2   1 -10   23.90   29.10
  -2   1 -10   10.80   28.00
  -2   1 -10   38.40   21.80
  -2   1 -10    9.00   15.40
  -3   1 -10 1951.60  155.28
  -3   1 -10 1827.82  153.88
  -3   1 -10 1912.11  180.48
  -3   1 -10 2185.58  203.98
  -4   1 -10  512.05   70.69
  -4   1 -10  639.34  116.69
  -4   1 -10  554.14  106.89
  -4   1 -10  450.25   68.59
  -5   1 -10 1415.46  197.98
  -5   1 -10 1517.65  133.19
  -5   1 -10 1627.74  213.48
  -6   1 -10 2079.59  263.47
  -6   1 -10 1321.67  139.09
  -6   1 -10 2406.46  271.87
   6  -1  10 1528.25  213.18
  -7   1 -10  128.79   49.40
  -7   1 -10  193.88   98.69
   7  -1  10   62.09   63.09
  -8   1 -10  187.28  102.59
  -8   1 -10  177.48   59.99
   8  -1  10  245.38  101.59
  -9   1 -10   65.99   86.29
  -9   1 -10   -6.90   35.10
   9  -1  10   -4.20   78.39
   8   0 -10   51.49   50.39
  -8   0  10  125.29  109.99
   7   0 -10  201.28   69.29
  -7   0  10  145.19  104.79
   6   0 -10    4.70   31.00
  -6   0  10   -3.00   64.69
   5   0 -10  248.08   64.09
  -5   0  10   96.59   74.89
   4   0 -10   48.00   38.70
   4   0 -10  -22.70   20.50
  -4   0  10   65.89   51.89
   3   0 -10  712.93   58.29
   3   0 -10  789.42  114.99
   3   0 -10  497.25   96.09
  -3   0  10  617.54  115.39
  -3   0  10  667.93  143.59
   2   0 -10 4853.51  362.36
   2   0 -10 4458.45  375.16
  -2   0  10 5264.37  400.26
   1   0 -10  536.25   75.29
   1   0 -10  428.76   85.79
   1   0 -10  314.07  114.79
   1   0 -10  437.16   69.49
  -1   0  10  384.36   92.89
   0   0 -10 3093.29  246.88
   0   0 -10 3486.45  250.87
   0   0 -10 3311.67  280.37
   0   0 -10 3542.55  244.48
   0   0 -10 3175.38  312.57
  -1   0 -10 1222.98  105.89
  -1   0 -10 1328.87  108.69
  -1   0 -10  998.50  171.48
  -1   0 -10 1300.57  123.29
  -2   0 -10   52.89   33.80
  -2   0 -10   58.29   34.60
  -2   0 -10   42.30   19.70
  -2   0 -10   20.80   16.50
  -3   0 -10  592.84   67.19
  -3   0 -10  811.82  121.99
  -3   0 -10  599.64  109.29
  -3   0 -10  693.53   71.69
  -4   0 -10   -7.00   11.90
  -4   0 -10   13.20   14.10
  -4   0 -10   -0.20   27.20
  -4   0 -10   13.90   12.20
  -4   0 -10   41.60   41.60
  -5   0 -10  312.07   38.30
  -5   0 -10  287.27   89.89
  -5   0 -10  164.68   64.89
  -5   0 -10  284.07   50.19
  -6   0 -10  151.28   83.79
  -6   0 -10  306.87   94.09
  -6   0 -10  280.27   51.39
  -7   0 -10  823.62  162.98
  -7   0 -10  839.02  110.49
  -7   0 -10  947.31  189.78
  -8   0 -10  161.88   53.29
  -8   0 -10  243.78  122.29
  -9   0 -10 1169.88  157.88
  -9   0 -10 1268.97  254.07
   9   0  10 1417.66  224.08
   8  -1 -10  507.05  128.09
   8  -1 -10  734.13  131.09
  -8   1  10  287.47  135.79
   7  -1 -10 1562.34  188.98
  -7   1  10 1316.07  259.97
   6  -1 -10  112.49   48.30
  -6   1  10  235.68  112.19
   5  -1 -10  439.96   84.19
  -5   1  10  281.27  116.79
   4  -1 -10  -16.70   28.50
   4  -1 -10   26.30   27.80
  -4   1  10   38.30   60.59
   3  -1 -10    3.40   26.30
   3  -1 -10   78.49   38.60
  -3   1  10   18.90   57.69
   2  -1 -10  575.84  117.29
   2  -1 -10  273.87   59.79
   2  -1 -10  359.36   73.29
  -2   1  10  385.46   81.19
  -2   1  10  372.26  109.19
   1  -1 -10  146.79   68.19
   1  -1 -10  140.69   27.30
   1  -1 -10   84.49   38.00
   1  -1 -10   69.89   29.40
   1  -1 -10  106.39   35.40
  -1   1  10  121.39   44.70
   0  -1 -10   35.80   50.29
   0  -1 -10   27.60   20.20
   0  -1 -10   30.10   17.90
   0  -1 -10   81.99   43.10
   0  -1 -10   39.70   21.40
  -1  -1 -10 4080.59  278.47
  -1  -1 -10 4066.39  356.86
  -1  -1 -10 3799.32  315.97
  -1  -1 -10 3867.91  296.97
  -1  -1 -10 4024.10  277.67
  -2  -1 -10 2853.01  322.37
  -2  -1 -10 3977.50  302.67
  -2  -1 -10 3879.71  264.97
  -2  -1 -10 4211.08  266.17
  -3  -1 -10  653.43  107.09
  -3  -1 -10  708.33   55.79
  -3  -1 -10  715.63   56.89
  -3  -1 -10  635.54  110.39
  -4  -1 -10 1850.71  180.78
  -4  -1 -10 2037.10  199.18
  -4  -1 -10 1708.33  139.49
  -4  -1 -10 1572.24  126.09
  -4  -1 -10 1769.32  130.79
  -5  -1 -10  224.48   35.50
  -5  -1 -10  339.57   98.49
  -5  -1 -10  324.17   86.39
  -5  -1 -10  272.67   42.90
  -6  -1 -10  336.27  115.49
  -6  -1 -10  387.76  104.29
  -6  -1 -10  392.36   59.59
  -7  -1 -10  177.88   74.89
  -7  -1 -10  235.28   94.69
  -7  -1 -10  196.08   50.99
  -8  -1 -10  307.97   71.29
  -8  -1 -10  263.07  127.89
  -9  -1 -10   92.59   49.90
  -9  -1 -10   82.59   92.69
 -10  -1 -10  512.75  187.48
 -10  -1 -10  518.35  109.29
   7  -2 -10  138.89   78.29
   7  -2 -10    9.00   46.30
  -7   2  10   38.10   88.29
   6  -2 -10   37.80   39.50
  -6   2  10  132.59   94.99
   5  -2 -10   46.20   37.50
  -5   2  10   79.99   79.89
   4  -2 -10 3411.66  278.07
   3  -2 -10 1707.83  218.28
   3  -2 -10 1719.63  159.88
   3  -2 -10 1579.44  180.18
  -3   2  10 1717.93  256.07
   2  -2 -10  258.37   58.09
   2  -2 -10  142.39   64.19
   2  -2 -10  241.48   56.39
  -2   2  10  115.69   69.89
   1  -2 -10   84.19   19.90
   1  -2 -10   79.19   33.10
   1  -2 -10   14.70   23.90
   1  -2 -10   19.30   38.00
  -1   2  10   17.80   40.50
   0  -2 -10  309.47   49.40
   0  -2 -10  312.97   84.89
   0  -2 -10  266.17   44.40
   0  -2 -10  221.88   41.00
   0  -2 -10  280.67   36.90
   0  -2 -10  188.48   53.29
  -1  -2 -10  481.35   85.59
  -1  -2 -10  445.26   50.59
  -1  -2 -10  367.56   98.59
  -1  -2 -10  328.27   43.40
  -2  -2 -10   74.59   12.90
  -2  -2 -10   57.09   12.40
  -2  -2 -10   84.59   52.99
  -3  -2 -10  144.69   61.69
  -3  -2 -10   86.79   29.50
  -4  -2 -10  955.40   76.59
  -4  -2 -10 1057.19  163.48
  -4  -2 -10  951.10   89.69
  -5  -2 -10 3026.30  216.28
  -5  -2 -10 2936.81  221.08
  -5  -2 -10 2955.30  220.28
  -5  -2 -10 3013.00  219.98
  -5  -2 -10 3527.35  307.27
  -6  -2 -10    7.20   13.40
  -6  -2 -10   18.30   53.79
  -6  -2 -10    0.10   14.00
  -6  -2 -10   13.50   11.30
  -7  -2 -10  811.22  183.08
  -7  -2 -10  966.10  112.09
  -7  -2 -10  857.21  160.28
  -8  -2 -10  468.35  156.98
  -8  -2 -10  305.57   69.19
   8   2  10  288.07   87.39
  -9  -2 -10  490.35   93.29
  -9  -2 -10  399.36  151.58
   9   2  10  369.26  100.69
 -10  -2 -10  257.57  138.69
 -10  -2 -10  486.95   95.09
   7  -3 -10  117.19   58.99
  -7   3  10  209.68  106.19
  -7   3  10   82.89   71.59
   6  -3 -10  220.48   81.59
   6  -3 -10  261.07   76.29
  -6   3  10  359.16  129.09
   5  -3 -10  747.73  129.09
   5  -3 -10  664.53  108.79
  -5   3  10  721.23  173.28
   4  -3 -10   60.49   49.40
  -4   3  10   75.79   72.89
   3  -3 -10   33.50   33.10
   3  -3 -10  119.59   41.20
   3  -3 -10  108.89   57.89
  -3   3  10   72.69   63.29
   2  -3 -10  110.99   51.59
   2  -3 -10  141.39   42.50
   2  -3 -10  103.99   40.10
  -2   3  10  209.68   86.99
   1  -3 -10 4010.10  340.47
   1  -3 -10 3755.72  294.67
   1  -3 -10 4233.88  311.77
   1  -3 -10 4154.58  311.57
  -1   3  10 4939.51  382.96
   0  -3 -10 5036.00  413.06
   0  -3 -10 5587.34  390.06
   0  -3 -10 5013.70  372.76
   0  -3 -10 5251.37  370.86
  -1  -3 -10   19.40   13.00
  -1  -3 -10   22.40   27.60
  -1  -3 -10  -10.90   26.60
  -1  -3 -10   20.50   15.10
  -1  -3 -10   60.09   29.50
  -2  -3 -10  245.88   32.50
  -2  -3 -10  334.07   58.59
  -2  -3 -10  261.77   78.29
  -2  -3 -10  271.07   60.79
  -2  -3 -10  338.77   39.40
  -3  -3 -10  184.58   43.00
  -3  -3 -10  111.09   19.50
  -3  -3 -10  110.09   59.29
  -3  -3 -10  109.19   15.80
  -4  -3 -10   51.69   24.10
  -4  -3 -10   41.90   13.50
  -4  -3 -10   33.00   20.40
  -4  -3 -10   47.90   48.20
  -4  -3 -10   64.39   18.90
  -5  -3 -10  376.86  101.29
  -5  -3 -10  387.76   53.79
  -5  -3 -10  460.65   52.79
  -5  -3 -10  368.96   54.39
  -5  -3 -10  357.66   54.39
  -6  -3 -10  105.39   29.40
  -6  -3 -10   90.69   60.59
  -6  -3 -10   98.99   24.90
  -6  -3 -10  121.19   30.40
  -7  -3 -10   24.40   64.79
  -7  -3 -10   59.79   30.50
  -8  -3 -10 1707.83  276.77
  -8  -3 -10 2058.69  178.28
  -9  -3 -10  715.63  191.78
  -9  -3 -10  873.51  124.89
   9   3  10  584.84  131.29
 -10  -3 -10  352.56   87.69
 -10  -3 -10  371.46  157.08
  10   3  10  537.25  128.29
   6  -4 -10  705.53  113.89
  -6   4  10  467.25  131.09
  -6   4  10  460.85  145.49
   5  -4 -10  826.02  123.89
  -5   4  10  912.71  176.38
  -5   4  10 1132.49  205.28
   4  -4 -10   88.39   41.40
   4  -4 -10   99.39   60.79
   4  -4 -10  139.39   54.59
  -4   4  10  222.38  113.89
  -4   4  10   88.59   64.39
   3  -4 -10   41.20   34.50
   3  -4 -10   61.09   45.10
   3  -4 -10   54.99   32.30
  -3   4  10   29.50   51.19
   2  -4 -10  614.34   99.19
   2  -4 -10  637.14   89.69
   2  -4 -10  914.01  135.69
  -2   4  10  628.14  133.19
   1  -4 -10  290.27   73.79
   1  -4 -10  294.77   61.59
   1  -4 -10  182.48   42.70
  -1   4  10  381.36  105.39
   0  -4 -10  203.98   63.89
   0  -4 -10  161.98   38.90
   0  -4 -10  126.39   37.30
   0   4  10  153.88   67.19
  -1  -4 -10  549.45   99.39
  -1  -4 -10  777.32   98.59
  -1  -4 -10  698.93   91.99
  -1  -4 -10  632.64   86.39
  -1  -4 -10  754.52   87.99
  -1  -4 -10  794.42   73.09
  -2  -4 -10  466.75   58.69
  -2  -4 -10  404.16   65.09
  -2  -4 -10  402.26   50.59
  -2  -4 -10  352.76   78.89
  -2  -4 -10  393.06   65.59
  -2  -4 -10  432.96   72.29
  -3  -4 -10 5198.48  417.26
  -3  -4 -10 5431.66  386.96
  -3  -4 -10 5108.79  393.86
  -3  -4 -10 5354.46  370.26
  -3  -4 -10 5260.17  381.36
  -3  -4 -10 5463.35  363.76
  -4  -4 -10 1381.06  105.89
  -4  -4 -10 1323.57  116.89
  -4  -4 -10 1319.07  113.99
  -4  -4 -10 1217.08  168.58
  -4  -4 -10 1220.28  103.59
  -5  -4 -10  209.28   47.00
  -5  -4 -10  233.08   40.80
  -5  -4 -10  190.68   62.49
  -5  -4 -10  193.48   41.60
  -5  -4 -10  282.67   45.00
  -6  -4 -10  157.18   38.70
  -6  -4 -10  254.37   40.80
  -6  -4 -10  208.08   42.70
  -6  -4 -10  334.07  110.39
  -7  -4 -10    0.30   21.80
  -7  -4 -10   28.40   59.49
  -7  -4 -10    1.60   11.10
  -7  -4 -10  -16.30   13.80
  -8  -4 -10  451.05   79.09
  -8  -4 -10  494.15  160.18
  -9  -4 -10   58.79   38.10
  -9  -4 -10   -7.10   73.09
   9   4  10  -14.50   28.90
 -10  -4 -10   69.19   49.90
 -10  -4 -10    9.30   73.69
  10   4  10   14.60   44.30
   6  -5 -10  256.47   77.79
  -6   5  10  104.59  108.19
   5  -5 -10  377.76   81.49
  -5   5  10  361.56  132.19
  -5   5  10  517.05  123.69
   4  -5 -10  860.81  120.69
  -4   5  10  750.92  154.48
  -4   5  10  890.41  189.48
   3  -5 -10  258.37   59.49
   3  -5 -10  331.27   93.69
   3  -5 -10  174.98   65.69
  -3   5  10  256.07   96.19
  -3   5  10  284.77   95.09
   2  -5 -10 2394.36  196.68
   2  -5 -10 2188.58  218.08
   2  -5 -10 2557.94  235.68
  -2   5  10 2736.73  345.67
  -2   5  10 2396.16  244.28
   1  -5 -10   62.09   26.00
   1  -5 -10   37.80   37.60
   1  -5 -10   50.19   37.00
  -1   5  10   32.20   48.60
   0  -5 -10  157.28   46.00
   0  -5 -10  -20.60   23.20
   0  -5 -10   99.09   28.50
   0   5  10   34.20   40.20
  -1  -5 -10  642.64   74.09
  -1  -5 -10  579.04   85.59
  -1  -5 -10  626.14   99.49
   1   5  10 1049.40  153.48
  -2  -5 -10  280.77   55.29
  -2  -5 -10  247.68   44.00
  -2  -5 -10  236.18   41.30
  -2  -5 -10  212.38   53.89
  -2  -5 -10  208.88   45.90
  -2  -5 -10  243.38   44.20
  -2  -5 -10  191.28   43.30
  -3  -5 -10   62.39   26.40
  -3  -5 -10   -7.80   18.00
  -3  -5 -10   46.40   22.90
  -3  -5 -10   15.30   20.50
  -3  -5 -10  -18.30   23.30
  -3  -5 -10   -4.10   12.80
  -4  -5 -10  822.02   95.49
  -4  -5 -10  804.52   91.49
  -4  -5 -10  579.64   97.39
  -4  -5 -10  889.11   99.79
  -4  -5 -10  671.83   82.49
  -5  -5 -10   11.10   17.50
  -5  -5 -10    4.30   19.40
  -5  -5 -10   13.00   30.80
  -6  -5 -10 2841.02  210.38
  -6  -5 -10 2647.83  215.58
  -6  -5 -10 3037.40  299.47
  -6  -5 -10 2713.13  246.88
  -6  -5 -10 2806.32  218.78
  -7  -5 -10 1790.22  147.79
  -7  -5 -10 1531.95  253.57
  -7  -5 -10 1609.64  149.99
  -7  -5 -10 1744.03  139.09
  -8  -5 -10   25.10   49.30
  -8  -5 -10    0.70   24.90
  -9  -5 -10  -18.00   80.09
  -9  -5 -10   43.70   40.60
 -10  -5 -10  -40.60   70.59
 -10  -5 -10   41.60   35.90
  10   5  10   29.00   48.70
   5  -6 -10   68.79   48.70
  -5   6  10  113.49  101.09
   4  -6 -10  445.16   85.79
  -4   6  10  436.16  114.59
  -4   6  10  480.25  152.78
   3  -6 -10  392.16   73.79
   3  -6 -10  397.66  103.49
  -3   6  10  455.85  111.79
  -3   6  10  471.35  150.68
   2  -6 -10  347.77   89.19
   2  -6 -10  244.18   69.09
   2  -6 -10  327.37   60.69
  -2   6  10  227.58   79.29
  -2   6  10  348.97  116.09
   1  -6 -10 1436.86  130.49
   1  -6 -10 1548.55  184.08
   1  -6 -10 1788.12  201.28
  -1   6  10 1525.35  259.67
  -1   6  10 1549.74  206.78
   0  -6 -10    6.40   14.80
   0  -6 -10   -6.60   18.40
   0  -6 -10   12.80   33.10
   0   6  10  -44.30   45.60
  -1  -6 -10 2277.47  179.28
  -1  -6 -10 2564.04  214.18
  -1  -6 -10 2530.65  212.88
   1   6  10 3360.36  366.86
  -2  -6 -10  924.41  114.19
  -2  -6 -10  883.91   72.19
  -2  -6 -10  886.51  112.59
  -2  -6 -10  721.43   96.69
  -2  -6 -10  773.12   99.19
  -3  -6 -10  123.89   41.70
  -3  -6 -10  283.17   36.50
  -3  -6 -10  265.07   51.39
  -3  -6 -10  377.56   67.79
  -3  -6 -10  300.87   55.39
  -4  -6 -10   63.19   24.20
  -4  -6 -10   88.49   29.20
  -4  -6 -10   23.20   21.20
  -4  -6 -10   54.19   33.30
  -4  -6 -10  111.99   35.20
  -5  -6 -10  288.87   57.79
  -5  -6 -10  368.66   59.79
  -5  -6 -10  328.27   56.39
  -5  -6 -10  483.35   79.79
  -6  -6 -10   21.60   21.80
  -6  -6 -10   38.20   22.20
  -6  -6 -10  -10.20   20.60
  -7  -6 -10  269.17   63.59
  -7  -6 -10  269.17   55.49
  -7  -6 -10  200.98   93.89
  -7  -6 -10  222.48   46.30
  -8  -6 -10  480.05   88.39
  -8  -6 -10  477.35   80.39
  -8  -6 -10  449.86  143.79
  -9  -6 -10  489.25  149.49
  -9  -6 -10  631.44  106.69
 -10  -6 -10 2387.16  215.08
 -10  -6 -10 1655.43  314.67
  -4   7  10  710.13  203.08
   3  -7 -10  -25.10   25.60
  -3   7  10   58.19   90.89
   2  -7 -10  265.47   83.09
   2  -7 -10  365.96   96.99
   2  -7 -10  351.66   64.49
  -2   7  10  438.66  149.39
   1  -7 -10  119.49   54.79
   1  -7 -10   53.39   28.80
   1  -7 -10  116.89   52.79
  -1   7  10   34.00   84.49
   0  -7 -10  489.35  100.09
   0  -7 -10  612.04  104.49
   0  -7 -10  657.93   73.79
   0   7  10  648.74  174.48
  -1  -7 -10  475.35   86.09
  -1  -7 -10  327.37   74.09
   1   7  10  323.47  130.59
  -2  -7 -10 1410.16  130.99
  -2  -7 -10 1153.48  132.19
  -2  -7 -10 1182.88  154.88
   2   7  10 1840.42  275.87
  -3  -7 -10 1066.99  121.39
  -3  -7 -10  874.01  107.29
  -3  -7 -10  781.82  121.89
  -3  -7 -10  937.11   95.39
   3   7  10 1521.55  238.18
  -4  -7 -10 1020.80  123.99
  -4  -7 -10  980.80  131.69
  -4  -7 -10 1145.19   96.49
  -4  -7 -10 1093.09  119.89
   4   7  10  866.71  175.58
  -5  -7 -10 2030.50  168.98
  -5  -7 -10 1921.71  187.68
  -5  -7 -10 2042.10  175.48
  -6  -7 -10  -11.60   15.60
  -6  -7 -10   65.19   32.50
  -7  -7 -10   42.00   36.90
  -7  -7 -10  -10.80   17.20
  -7  -7 -10   -3.30   19.80
  -8  -7 -10  261.87   53.89
  -8  -7 -10  293.87   67.69
  -8  -7 -10  120.59   57.89
   8   7  10  243.38  117.09
  -9  -7 -10    8.00   31.50
 -10  -7 -10   13.40   42.90
  -3   8  10  769.42  220.68
  -2   8  10  356.56  135.49
   1  -8 -10  281.47   86.39
   1  -8 -10  321.87   92.49
  -1   8  10  567.84  170.48
   0  -8 -10  112.49   57.69
   0  -8 -10  258.07   76.99
   0   8  10  236.18  125.09
  -1  -8 -10  399.06   91.09
  -1  -8 -10  527.85   96.09
   1   8  10  576.54  163.38
  -2  -8 -10   25.70   26.80
  -2  -8 -10    8.30   30.50
   2   8  10  105.29   82.39
  -3  -8 -10  470.95   78.89
  -3  -8 -10  582.94  108.29
  -3  -8 -10  527.05   82.79
   3   8  10  306.47  111.39
  -4  -8 -10  300.37   73.09
  -4  -8 -10  298.77   64.89
  -4  -8 -10  160.38   45.50
   4   8  10  260.37  107.29
  -5  -8 -10  559.94  105.99
  -5  -8 -10  575.14   88.69
  -5  -8 -10  555.04   83.59
  -6  -8 -10 1787.52  176.18
  -6  -8 -10 1593.74  191.78
  -6  -8 -10 1244.48  146.99
  -7  -8 -10   59.49   50.29
  -7  -8 -10   74.79   35.70
  -7  -8 -10   50.39   31.80
   7   8  10   55.99   62.69
  -8  -8 -10 1852.31  181.28
  -8  -8 -10 2418.36  248.98
  -8  -8 -10 1896.21  171.28
   8   8  10 1744.63  309.77
  -9  -8 -10  254.67   73.19
   9   8  10  222.78  140.39
 -10  -8 -10   -4.20   33.40
  -2   9  10  171.88  121.79
   1  -9 -10   96.69   59.59
  -1   9  10  252.77  140.59
   0  -9 -10  726.63  151.38
   0   9  10 1158.58  255.17
  -1  -9 -10 1736.93  219.98
   1   9  10 1062.29  247.48
  -2  -9 -10   67.49   48.30
   2   9  10   73.99   75.89
  -3  -9 -10  491.75  112.29
  -3  -9 -10  696.23  100.59
   3   9  10  806.32  186.18
  -4  -9 -10  276.57   63.79
  -4  -9 -10  256.87   62.09
  -4  -9 -10  120.89   54.19
   4   9  10   75.59   73.69
  -5  -9 -10  127.89   45.90
  -5  -9 -10   80.59   38.50
  -5  -9 -10  160.28   62.99
  -6  -9 -10   96.89   40.30
  -6  -9 -10  263.67   80.09
  -6  -9 -10   66.99   45.60
  -7  -9 -10   86.69   40.70
  -7  -9 -10   93.29   44.20
   7   9  10   57.29   83.49
  -8  -9 -10  366.46   96.39
  -8  -9 -10  289.67   64.49
   8   9  10  255.57  119.29
  -9  -9 -10 1125.59  182.28
   9   9  10 1430.26  277.67
  -1  10  10  876.71  232.48
   0 -10 -10  441.86  118.09
   0  10  10  548.95  176.38
  -1 -10 -10  128.89   67.89
   1  10  10   26.30   77.69
  -2 -10 -10   55.39   46.60
   2  10  10   78.69   79.69
  -3 -10 -10  586.34  124.59
  -3 -10 -10  623.84  102.79
   3  10  10  709.33  176.28
  -4 -10 -10 1597.44  226.38
  -4 -10 -10 2040.70  183.78
   4  10  10 2406.26  324.57
  -5 -10 -10   54.49   38.90
  -5 -10 -10  167.78   71.69
  -6 -10 -10  598.74   95.79
  -6 -10 -10  385.96  101.59
   6  10  10  759.72  184.08
  -7 -10 -10   16.60   40.80
  -7 -10 -10   58.09   40.90
   7  10  10   17.30   67.09
  -8 -10 -10   47.40   42.80
  -8 -10 -10  102.19   81.59
   8  10  10  167.68  109.49
  -9 -10 -10  -49.60   44.40
   9  10  10 -129.39   88.49
  -1 -11 -10  138.29   68.79
   1  11  10  133.69  101.09
  -2 -11 -10  349.57  103.29
   2  11  10  417.86  165.28
  -3 -11 -10  771.12  153.18
   3  11  10  851.11  195.78
  -4 -11 -10   43.00   50.99
  -4 -11 -10   47.40   40.40
   4  11  10   18.70   63.69
  -5 -11 -10   50.49   36.80
  -5 -11 -10   -7.20   42.50
  -6 -11 -10  160.88   76.79
  -6 -11 -10  142.39   55.89
   6  11  10   42.00   92.69
  -7 -11 -10 1736.13  182.38
  -7 -11 -10  819.92  168.88
   7  11  10 1587.94  292.87
  -8 -11 -10  771.32  119.69
   8  11  10  395.06  172.08
  -4 -12 -10  210.58   88.59
  -4 -12 -10  113.19   52.39
  -5 -12 -10   81.79   47.20
  -5 -12 -10   56.49   61.89
   5  12  10   -8.80   70.79
  -5  -9  11   12.30   56.99
  -4  -9  11   67.49   64.39
   3   9 -11  216.08   92.59
  -3  -9  11  120.09   86.49
  -3  -9  11  340.17  103.89
   2   9 -11   23.00   78.09
  -2  -9  11   49.99   55.89
  -2  -9  11  210.88   92.99
   1   9 -11 1079.99  216.28
  -1  -9  11 1316.37  225.38
   0   9 -11 1323.37  243.98
   0  -9  11 1098.29  202.48
  -6  -8  11 1453.95  244.78
  -5  -8  11 1069.09  199.18
  -4  -8  11   -6.60   45.80
   3   8 -11  198.58   81.59
  -3  -8  11   61.69   55.39
  -3  -8  11  268.97   96.59
   2   8 -11   -3.60   53.49
  -2  -8  11    9.50   51.29
  -2  -8  11   17.90   45.40
   1   8 -11  504.75  129.89
   1   8 -11  297.77  113.29
  -1  -8  11  662.93  155.28
   0   8 -11    2.70   55.19
   0   8 -11   34.60   65.59
   0  -8  11   25.10   52.59
  -1   8 -11  228.78   84.99
  -1   8 -11   13.40   75.39
   1  -8  11  250.47   99.09
  -2   8 -11   80.89  105.19
  -2   8 -11  150.78   77.99
   2  -8  11  130.19   74.59
   7   7 -11   32.10   49.90
  -7  -7  11   99.89   66.89
   6   7 -11  -40.20   43.10
  -6  -7  11   55.89   62.69
  -5  -7  11 1300.17  218.08
  -4  -7  11 1200.48  207.88
   3   7 -11  644.94  127.39
  -3  -7  11  696.83  146.69
  -3  -7  11  487.35  124.09
   2   7 -11 1414.26  210.38
   2   7 -11 1998.40  249.58
  -2  -7  11 1448.56  224.28
  -2  -7  11 1644.94  236.48
   1   7 -11  402.56  107.89
   1   7 -11  416.46  111.89
  -1  -7  11  354.16  109.69
   0   7 -11  359.86  116.99
   0   7 -11  493.15  119.39
   0  -7  11  225.28   99.99
  -1   7 -11  123.29   87.49
  -1   7 -11  208.98   87.59
   1  -7  11  130.99   79.49
  -2   7 -11  478.75  118.29
  -2   7 -11  406.66  152.28
   2  -7  11  581.94  138.59
  -3   7 -11  254.97   85.69
  -3   7 -11  407.16  150.68
   3  -7  11  220.28   88.19
  -4   7 -11  301.77   94.69
  -4   7 -11  577.24  174.58
   4  -7  11  132.79   79.29
  -7  -6  11  497.45  150.48
  -7  -6  11  506.15  136.59
   6   6 -11   17.00   39.90
  -6  -6  11    8.70   58.49
  -5  -6  11  338.87  109.79
  -4  -6  11  126.09   66.29
   3   6 -11  162.98   59.19
   3   6 -11  113.89   68.09
  -3  -6  11   34.50   49.70
  -3  -6  11  101.49   68.19
   2   6 -11  140.19   67.09
   2   6 -11  365.86   92.39
  -2  -6  11  194.88   75.29
  -2  -6  11  222.38   88.99
   1   6 -11 1927.71  235.98
   1   6 -11 1630.24  224.38
  -1  -6  11 1441.96  221.28
   0   6 -11   21.10   51.29
   0   6 -11    3.70   39.40
   0  -6  11   37.20   50.79
  -1   6 -11 2139.59  280.77
  -1   6 -11 2133.79  244.28
   1  -6  11 1809.32  253.57
  -2   6 -11 1055.19  200.28
  -2   6 -11  805.62  137.99
   2  -6  11  606.24  137.79
  -3   6 -11  503.15  109.79
  -3   6 -11  514.15  157.18
   3  -6  11  491.85  123.09
  -4   6 -11  416.56   97.89
  -4   6 -11  206.88  106.39
   4  -6  11  207.78   84.69
  -5   6 -11   45.00   79.29
  -5   6 -11   33.40   46.90
   5  -6  11   48.60   59.09
  -8  -5  11  -13.10   61.99
  -7  -5  11 1556.74  257.57
  -7  -5  11 1308.77  214.48
   6   5 -11 2207.68  244.88
  -6  -5  11 2670.43  319.87
  -5  -5  11  118.99   62.89
  -4  -5  11  892.71  174.08
   3   5 -11  136.09   49.40
   3   5 -11   71.09   49.80
  -3  -5  11  131.59   76.79
  -3  -5  11  138.39   63.89
   2   5 -11   60.29   47.10
   2   5 -11  124.99   53.69
  -2  -5  11  240.98   80.79
  -2  -5  11  387.46  113.89
   1   5 -11  319.97   88.69
   1   5 -11  229.98   75.49
  -1  -5  11  244.38   91.59
   0   5 -11   -2.40   44.20
   0   5 -11   34.60   43.30
   0  -5  11   38.40   53.29
  -1   5 -11  -10.20   32.20
  -1   5 -11    6.50   48.40
   1  -5  11   10.10   42.30
  -2   5 -11 1455.75  181.18
  -2   5 -11 1754.42  242.68
   2  -5  11  970.20  170.98
  -3   5 -11  535.95  101.69
  -3   5 -11  738.93  164.18
   3  -5  11  293.27   94.29
  -4   5 -11  882.41  138.59
  -4   5 -11  874.91  191.68
   4  -5  11  637.74  134.39
  -5   5 -11 1090.49  156.18
  -5   5 -11  796.52  181.28
   5  -5  11  678.43  147.49
  -6   5 -11  118.29   56.79
  -6   5 -11   80.59   89.49
   6  -5  11  208.68  123.79
  -8  -4  11  250.47  128.39
  -7  -4  11  -27.60   55.39
  -7  -4  11  132.89   67.79
  -6  -4  11   58.79   56.39
  -6  -4  11   10.40   59.69
   5   4 -11   91.29   41.00
  -5  -4  11   68.89   63.49
   4   4 -11  231.98   91.09
  -4  -4  11  543.05  125.19
   3   4 -11 5148.08  419.56
  -3  -4  11 5560.24  453.65
   2   4 -11  867.51  137.09
   2   4 -11  957.50  127.09
  -2  -4  11 1245.68  180.98
  -2  -4  11 1016.70  172.78
   1   4 -11  961.80  138.89
   1   4 -11  643.24  115.79
  -1  -4  11  731.93  142.39
  -1  -4  11  906.61  144.49
   0   4 -11  968.50  149.49
   0   4 -11  868.41  131.69
   0  -4  11  866.01  158.08
  -1   4 -11  167.98   57.99
  -1   4 -11  227.48   76.59
   1  -4  11   56.39   50.29
  -2   4 -11 1377.66  201.68
  -2   4 -11 1335.07  159.68
   2  -4  11  993.50  162.88
  -3   4 -11   -7.60   22.90
  -3   4 -11   30.70   52.99
   3  -4  11   34.20   43.40
  -4   4 -11  246.18   91.89
  -4   4 -11  231.28   63.09
   4  -4  11  136.59   60.39
  -5   4 -11  325.07  112.19
  -5   4 -11  545.45   96.99
   5  -4  11  358.36  121.09
  -6   4 -11 1058.79  148.49
  -6   4 -11  845.72  177.38
   6  -4  11  880.91  193.98
  -7   4 -11   64.29   46.10
  -7   4 -11   27.50   78.49
   7  -4  11  -15.40   80.59
  -8  -3  11 2182.78  352.06
  -7  -3  11  265.37  115.19
  -7  -3  11  164.78   71.59
  -6  -3  11  162.78   68.89
  -6  -3  11   86.19   74.09
   5   3 -11  162.68   48.70
  -5  -3  11  308.37   96.19
  -5  -3  11   72.49   62.69
   4   3 -11  152.48   61.29
  -4  -3  11   -2.30   44.90
   3   3 -11   36.30   37.90
  -3  -3  11   66.59   49.10
   2   3 -11  129.79   52.19
   2   3 -11  131.59   39.20
  -2  -3  11  187.38   73.59
  -2  -3  11   90.49   58.89
   1   3 -11  -24.80   22.40
   1   3 -11   13.00   28.60
  -1  -3  11    7.90   39.40
  -1  -3  11  -18.60   30.00
   0   3 -11 3022.70  267.77
   0   3 -11 3352.76  270.67
   0  -3  11 3261.97  304.47
  -1   3 -11 3320.07  299.67
  -1   3 -11 3583.34  285.87
   1  -3  11 3686.43  325.07
  -2   3 -11  157.38   48.10
  -2   3 -11   96.99   35.90
  -2   3 -11   18.80   44.80
   2  -3  11    6.10   40.80
  -3   3 -11  369.06   72.89
  -3   3 -11  532.95   89.39
  -3   3 -11  475.25  112.79
   3  -3  11  417.66  123.09
  -4   3 -11  195.48   89.79
  -4   3 -11  241.58   67.19
  -4   3 -11  139.49   48.80
   4  -3  11  121.09   78.29
  -5   3 -11  738.93  134.89
  -5   3 -11  786.42  109.09
  -5   3 -11  596.34  146.49
   5  -3  11  479.25  135.39
  -6   3 -11  243.98   67.89
  -6   3 -11  316.57  104.09
  -6   3 -11  446.36  132.69
   6  -3  11  231.28  100.99
  -7   3 -11  114.39   90.19
  -7   3 -11  203.88   99.89
  -7   3 -11   90.49   47.80
   7  -3  11  132.09   88.19
  -8  -2  11  199.28  124.19
  -7  -2  11  232.38  114.09
  -6  -2  11   -3.10   40.40
  -6  -2  11  -21.40   55.39
  -5  -2  11 2755.02  360.96
  -5  -2  11 3617.64  319.47
   4   2 -11 1534.95  180.48
   4   2 -11 1390.16  120.59
  -4  -2  11  816.42  162.08
  -4  -2  11 1147.99  196.28
   3   2 -11  465.25   93.59
  -3  -2  11  369.66  108.89
   2   2 -11   64.29   35.00
   2   2 -11   43.80   17.80
  -2  -2  11   -4.20   42.20
   1   2 -11  102.99   37.60
   1   2 -11   34.50   32.20
  -1  -2  11  157.68   66.39
  -1  -2  11  110.29   60.99
   0   2 -11  238.18   59.99
   0   2 -11  286.87   61.49
   0   2 -11  192.38   52.19
   0   2 -11  168.68   43.40
   0  -2  11  111.09   64.09
  -1   2 -11   23.90   29.60
  -1   2 -11   -3.80   14.20
  -1   2 -11  -22.50   16.90
   1  -2  11   36.00   45.10
  -2   2 -11  348.87   84.59
  -2   2 -11  277.47   60.29
  -2   2 -11  245.68   59.49
  -2   2 -11  329.67   61.69
  -3   2 -11 1530.05  204.88
  -3   2 -11 1650.13  140.49
  -3   2 -11 1522.35  142.29
  -3   2 -11 1335.77  166.58
  -4   2 -11 4473.25  351.36
  -4   2 -11 3548.74  278.07
  -4   2 -11 3262.57  301.27
   4  -2  11 3685.23  339.37
  -5   2 -11  266.17   84.39
  -5   2 -11  340.57  106.79
  -5   2 -11  300.87   62.39
   5  -2  11  191.78   86.69
  -6   2 -11  365.96  110.59
  -6   2 -11  228.08   93.99
  -6   2 -11  365.26   71.19
   6  -2  11  295.67  102.79
  -7   2 -11   44.20   40.20
  -7   2 -11   46.30   59.09
  -7   2 -11  223.78   84.49
   7  -2  11   24.90   64.29
  -8   2 -11  171.88   58.59
  -8   2 -11  561.84  153.58
   8  -2  11  210.98   98.89
  -8  -1  11   54.49  103.99
  -7  -1  11  133.49   91.69
  -6  -1  11  927.81  193.88
   5   1 -11  224.48   82.29
  -5  -1  11  435.96  132.89
  -5  -1  11  360.16   93.99
   4   1 -11  887.21  133.39
   4   1 -11  708.43  121.89
  -4  -1  11  753.92  140.49
  -4  -1  11 1017.00  191.58
   3   1 -11  603.94  105.89
   3   1 -11  475.75   90.89
  -3  -1  11  507.35  122.39
   2   1 -11 2210.98  187.78
   2   1 -11 1793.82  218.48
  -2  -1  11 2082.09  263.97
   1   1 -11 5215.98  372.86
   1   1 -11 5742.03  397.26
   1   1 -11 5141.99  418.96
   1   1 -11 5127.19  373.86
  -1  -1  11 5567.24  440.46
  -1  -1  11 5341.27  442.46
   0   1 -11  102.89   29.40
   0   1 -11  125.79   30.10
   0   1 -11   72.09   42.20
   0   1 -11  132.19   40.60
   0   1 -11  121.59   38.70
   0   1 -11  111.19   35.20
   0  -1  11   59.49   53.49
  -1   1 -11  169.28   44.00
  -1   1 -11  131.49   36.60
  -1   1 -11  117.89   46.90
  -1   1 -11  205.08   78.79
  -1   1 -11  149.59   39.70
  -2   1 -11  127.39   43.60
  -2   1 -11  187.88   40.00
  -2   1 -11  117.79   50.69
  -2   1 -11   72.29   29.40
  -3   1 -11    9.00   26.80
  -3   1 -11   35.20   21.60
  -3   1 -11   24.40   33.50
  -4   1 -11   49.99   28.80
  -4   1 -11   59.09   41.40
  -4   1 -11    6.70   37.10
  -4   1 -11   91.09   29.70
  -5   1 -11  537.45  115.59
  -5   1 -11  125.69   67.59
  -5   1 -11  412.96   64.49
  -6   1 -11   11.90   22.80
  -6   1 -11   92.89   68.49
  -6   1 -11  -16.60   41.60
  -7   1 -11 2070.39  280.77
  -7   1 -11 2001.50  180.28
  -7   1 -11 2067.69  274.87
   7  -1  11 1800.72  254.77
  -8   1 -11  820.92  123.49
  -8   1 -11 1221.88  230.38
   8  -1  11  659.23  157.78
  -9   1 -11   39.20   71.49
   8   0 -11   68.79   57.19
  -8   0  11  200.78  124.39
   7   0 -11  416.66  103.99
  -7   0  11  667.03  181.48
   6   0 -11  623.84  121.69
  -6   0  11 1247.18  243.18
   5   0 -11  273.07   72.39
  -5   0  11  295.27  124.19
   4   0 -11  -14.80   30.30
   4   0 -11  -22.40   21.40
  -4   0  11    7.00   39.90
   3   0 -11  509.75   49.80
   3   0 -11  728.43  108.79
   3   0 -11  672.43  115.19
  -3   0  11  627.84  144.89
  -3   0  11  795.62  141.19
   2   0 -11  103.99   49.30
   2   0 -11  202.68   56.29
  -2   0  11  106.19   57.09
   1   0 -11  149.39   78.19
   1   0 -11  280.77   55.69
   1   0 -11  216.28   48.60
   1   0 -11  255.57   68.59
  -1   0  11  436.66  102.99
   0   0 -11 1464.15  127.19
   0   0 -11 1396.36  120.59
   0   0 -11 1393.66  118.59
   0   0 -11 1100.09  197.98
   0   0 -11 1937.01  198.78
   0   0 -11 1438.76  124.59
  -1   0 -11  639.74   93.19
  -1   0 -11  502.15   97.99
  -1   0 -11  731.73   80.59
  -1   0 -11  728.73  148.59
  -1   0 -11  697.63   79.09
  -2   0 -11 5556.94  397.46
  -2   0 -11 5255.37  363.76
  -2   0 -11 5004.50  360.16
  -2   0 -11 4972.60  387.96
  -3   0 -11 1064.59   92.29
  -3   0 -11 1112.99   94.69
  -3   0 -11 1505.65  166.18
  -3   0 -11 1052.09  152.48
  -4   0 -11   18.90   45.00
  -4   0 -11   10.60   13.40
  -4   0 -11   -0.70   29.10
  -5   0 -11   77.99   49.30
  -5   0 -11   29.10   20.60
  -5   0 -11   29.70   45.60
  -5   0 -11   31.90   15.70
  -6   0 -11  -37.20   31.40
  -6   0 -11   15.20   54.09
  -6   0 -11   24.00   21.40
  -7   0 -11  130.69   70.89
  -7   0 -11  155.18   85.19
  -7   0 -11  149.88   44.70
  -8   0 -11  231.38  102.89
  -8   0 -11   89.59   40.80
  -9   0 -11   70.39   43.50
  -9   0 -11    6.80   74.49
   7  -1 -11  341.67   95.59
  -7   1  11  263.47  127.19
   6  -1 -11  914.91  135.99
  -6   1  11  734.33  191.08
   5  -1 -11 1689.23  195.88
  -5   1  11 1752.52  288.27
   4  -1 -11  146.29   59.09
   4  -1 -11  437.26   93.89
  -4   1  11  255.97  105.39
   3  -1 -11 2024.20  216.28
   3  -1 -11 1943.61  189.38
   2  -1 -11   32.10   33.90
   2  -1 -11  -27.20   43.20
   2  -1 -11   -6.90   21.10
  -2   1  11   57.79   40.70
  -2   1  11   48.30   49.20
   1  -1 -11   49.60   42.20
   1  -1 -11  151.18   30.40
   1  -1 -11  159.98   42.90
   1  -1 -11   98.19   35.10
   1  -1 -11   73.79   57.69
  -1   1  11   83.29   45.80
   0  -1 -11 1529.05  124.79
   0  -1 -11 1199.38  117.19
   0  -1 -11 1535.65  181.28
   0  -1 -11 1553.74  122.09
   0  -1 -11 1675.23  232.18
  -1  -1 -11  102.09   37.10
  -1  -1 -11  239.98   62.69
  -1  -1 -11  147.39   72.69
  -1  -1 -11  118.59   26.20
  -2  -1 -11  221.68   56.19
  -2  -1 -11  194.28   73.89
  -2  -1 -11  258.37   34.30
  -2  -1 -11  220.98   31.60
  -3  -1 -11 1235.38  153.88
  -3  -1 -11 1209.18   86.59
  -3  -1 -11 1017.10  149.99
  -3  -1 -11 1115.09   87.89
  -4  -1 -11  485.85   95.39
  -4  -1 -11  277.97   40.40
  -4  -1 -11  286.77   37.80
  -4  -1 -11  312.77   87.59
  -4  -1 -11  296.27   50.59
  -5  -1 -11 2562.04  198.48
  -5  -1 -11 3110.09  282.67
  -5  -1 -11 2696.43  195.78
  -5  -1 -11 2545.55  253.67
  -6  -1 -11 1444.46  123.09
  -6  -1 -11 1608.64  213.08
  -6  -1 -11 1298.07  210.68
  -7  -1 -11  -10.80   14.90
  -7  -1 -11   50.69   56.59
  -7  -1 -11  -14.10   59.49
  -8  -1 -11   10.10   81.39
  -8  -1 -11   -0.90   25.30
  -9  -1 -11    9.10   29.10
  -9  -1 -11   71.29  104.69
   7  -2 -11  540.35  136.29
   7  -2 -11  412.36   99.29
  -7   2  11  433.56  159.58
   6  -2 -11  368.36   85.49
  -6   2  11  313.17  134.59
   5  -2 -11  105.19   49.10
  -5   2  11  104.29   85.79
   4  -2 -11  428.66   95.49
   4  -2 -11  402.16   83.19
  -4   2  11  315.37  117.99
   3  -2 -11  825.12  120.69
   3  -2 -11  803.02  124.29
   3  -2 -11  805.22  147.79
  -3   2  11  955.90  190.38
   2  -2 -11 2962.00  249.18
   2  -2 -11 3054.49  254.67
   2  -2 -11 3217.18  294.97
  -2   2  11 2901.41  307.67
   1  -2 -11  459.35   82.29
   1  -2 -11  262.47   55.79
   1  -2 -11  140.49   69.29
   0  -2 -11 1818.82  184.28
   0  -2 -11 1988.60  161.98
   0  -2 -11 2077.59  159.98
   0  -2 -11 2062.09  157.58
   0  -2 -11 2128.69  259.47
   0  -2 -11 1966.90  149.09
  -1  -2 -11 1028.00   87.89
  -1  -2 -11 1339.57  193.88
  -1  -2 -11 1030.80   88.89
  -1  -2 -11 1106.89  142.69
  -2  -2 -11  159.28   22.00
  -2  -2 -11   74.99   57.09
  -2  -2 -11  186.28   54.89
  -2  -2 -11  162.88   22.30
  -3  -2 -11   73.49   57.99
  -3  -2 -11  230.48   48.40
  -4  -2 -11  934.71   68.59
  -4  -2 -11  881.41   64.99
  -4  -2 -11  631.54  124.49
  -4  -2 -11  844.22   98.09
  -5  -2 -11   31.70   20.50
  -5  -2 -11   25.70   15.90
  -5  -2 -11   58.59   18.00
  -5  -2 -11   35.40   48.80
  -6  -2 -11  412.06  120.99
  -6  -2 -11  344.07   51.29
  -6  -2 -11  365.26   48.60
  -6  -2 -11  408.36   98.09
  -6  -2 -11  311.07   44.50
  -7  -2 -11  950.50  104.99
  -7  -2 -11  858.91  184.78
  -7  -2 -11  651.23  140.09
  -8  -2 -11  351.36  113.89
  -8  -2 -11  489.45   79.89
  -8  -2 -11  343.37  121.79
  -9  -2 -11 2060.09  194.88
  -9  -2 -11 2530.25  370.26
 -10  -2 -11   90.99   53.39
 -10  -2 -11  118.89  111.49
   6  -3 -11   46.40   45.90
  -6   3  11   -3.90   66.09
   5  -3 -11  340.17   81.59
  -5   3  11  331.37  124.69
   4  -3 -11  161.28   63.39
   4  -3 -11  191.18   57.19
   4  -3 -11  192.48   75.09
  -4   3  11  114.99   90.29
   3  -3 -11  586.04   91.19
   3  -3 -11  600.94  107.29
   3  -3 -11  567.24  126.09
  -3   3  11  382.46  126.79
   2  -3 -11   -2.10   20.90
   2  -3 -11   84.99   54.49
   2  -3 -11   33.50   29.40
  -2   3  11   -7.50   44.90
   1  -3 -11  410.06   98.99
   1  -3 -11  403.36   70.69
   1  -3 -11  314.87   65.59
  -1   3  11  413.96  116.99
   0  -3 -11  466.35   78.79
   0  -3 -11  387.76   62.39
   0  -3 -11  374.26   57.89
   0  -3 -11  327.37   95.29
  -1  -3 -11 3924.21  275.57
  -1  -3 -11 4253.97  349.37
  -1  -3 -11 3527.65  307.17
  -1  -3 -11 3900.61  278.67
  -1  -3 -11 3920.81  306.37
  -2  -3 -11 2196.38  184.48
  -2  -3 -11 1943.11  251.67
  -2  -3 -11 2096.69  152.98
  -2  -3 -11 2423.06  201.38
  -2  -3 -11 2018.20  149.79
  -3  -3 -11  280.07   89.29
  -3  -3 -11  388.76   65.09
  -4  -3 -11 1077.09  177.08
  -4  -3 -11 1414.36  124.39
  -4  -3 -11 1466.65  126.99
  -4  -3 -11 1385.06   96.29
  -5  -3 -11    0.70   10.20
  -5  -3 -11   30.90   22.00
  -5  -3 -11    1.10   14.00
  -5  -3 -11    8.60   15.70
  -5  -3 -11   55.69   47.30
  -6  -3 -11   36.40   19.00
  -6  -3 -11   61.69   22.30
  -6  -3 -11   80.19   64.69
  -6  -3 -11   40.10   18.70
  -7  -3 -11  310.77   56.09
  -7  -3 -11  158.28   85.09
  -8  -3 -11    1.60   23.20
  -8  -3 -11  -14.50   56.99
  -8  -3 -11   12.80   42.00
  -9  -3 -11  137.79  102.19
  -9  -3 -11  122.99   46.70
   9   3  11  109.39   60.49
 -10  -3 -11 1253.97  270.67
 -10  -3 -11  876.61  132.79
  10   3  11  639.14  146.69
   6  -4 -11   31.60   40.10
  -6   4  11   21.20   62.29
  -6   4  11   30.20   77.69
   5  -4 -11   61.29   42.90
  -5   4  11   72.59   75.39
   4  -4 -11 1797.32  190.58
   4  -4 -11 1356.06  242.08
  -4   4  11 1550.94  248.08
   3  -4 -11  705.73   97.49
   3  -4 -11  737.43  133.39
   3  -4 -11  368.76   86.29
  -3   4  11  610.44  146.89
   2  -4 -11  323.57   75.99
   2  -4 -11  450.75  103.79
   2  -4 -11  410.76   71.59
  -2   4  11  601.84  143.89
   1  -4 -11    8.70   20.20
   1  -4 -11   17.00   37.00
   1  -4 -11   13.90   22.00
  -1   4  11   53.89   59.19
   0  -4 -11  838.62  135.29
   0  -4 -11  909.61  109.49
   0  -4 -11  945.31  114.19
   0   4  11 1159.28  181.18
  -1  -4 -11   10.70   16.60
  -1  -4 -11   -0.10   27.10
  -1  -4 -11   31.10   19.20
  -1  -4 -11   29.60   24.40
  -1  -4 -11  104.59   45.40
  -2  -4 -11  432.36   95.29
  -2  -4 -11  520.05   78.29
  -2  -4 -11  366.06   67.19
  -2  -4 -11  451.15   52.39
  -2  -4 -11  375.86   73.59
  -2  -4 -11  349.96   54.49
  -3  -4 -11  101.89   24.80
  -3  -4 -11  100.89   52.19
  -3  -4 -11   76.99   36.60
  -3  -4 -11   28.60   24.00
  -3  -4 -11   89.59   32.30
  -3  -4 -11   88.09   18.00
  -4  -4 -11  942.21   73.49
  -4  -4 -11  833.32  100.99
  -4  -4 -11  796.92  141.99
  -4  -4 -11  896.81  102.19
  -5  -4 -11 3527.65  245.48
  -5  -4 -11 3148.68  247.68
  -5  -4 -11 3165.18  294.17
  -5  -4 -11 3170.58  231.78
  -6  -4 -11    6.90   15.00
  -6  -4 -11   -6.10   13.50
  -6  -4 -11  -11.90   13.70
  -6  -4 -11   96.89   67.59
  -7  -4 -11 1650.83  123.09
  -7  -4 -11  997.60  106.69
  -7  -4 -11 1194.28  218.18
  -8  -4 -11  176.08   90.89
  -8  -4 -11  164.08   46.10
  -9  -4 -11  -56.99   62.39
  -9  -4 -11   14.60   32.10
 -10  -4 -11  271.57   74.09
 -10  -4 -11  129.79  100.39
  10   4  11   87.39   63.79
   5  -5 -11  954.60  142.09
  -5   5  11 1176.78  196.58
  -5   5  11  743.53  183.38
   4  -5 -11  195.28   59.69
  -4   5  11  184.88   87.29
  -4   5  11  145.59   90.59
   3  -5 -11    0.30   43.90
   3  -5 -11  -11.60   24.40
   3  -5 -11  -29.80   30.20
  -3   5  11  -50.99   47.10
  -3   5  11    0.10   49.20
   2  -5 -11   -7.80   18.80
   2  -5 -11   -9.30   24.70
   2  -5 -11   17.10   38.00
  -2   5  11  120.99   65.79
   1  -5 -11 1341.67  178.98
   1  -5 -11 1273.47  120.09
   1  -5 -11 1260.67  155.98
  -1   5  11 1340.97  200.78
   0  -5 -11 1827.02  202.58
   0  -5 -11 2464.55  181.38
   0  -5 -11 2185.98  195.18
   0   5  11 2285.57  233.68
  -1  -5 -11   38.30   25.90
  -1  -5 -11   30.60   23.60
  -1  -5 -11   25.30   31.70
  -1  -5 -11    9.30   17.90
   1   5  11   65.69   45.60
  -2  -5 -11  322.27   59.79
  -2  -5 -11  301.47   73.09
  -2  -5 -11  444.96   65.29
  -2  -5 -11  328.07   58.09
  -2  -5 -11  331.17   63.09
  -3  -5 -11  530.55   80.99
  -3  -5 -11  609.94  101.59
  -3  -5 -11  520.45   82.59
  -3  -5 -11  762.02   85.99
  -3  -5 -11  768.52   98.19
  -4  -5 -11  566.94   80.19
  -4  -5 -11  609.34  107.59
  -4  -5 -11  740.73  101.79
  -4  -5 -11  654.93   81.39
  -4  -5 -11  675.53   90.59
  -5  -5 -11  107.39   34.20
  -5  -5 -11  115.59   59.29
  -5  -5 -11  162.38   39.50
  -5  -5 -11  146.99   35.20
  -6  -5 -11  -16.30   34.70
  -6  -5 -11   62.29   28.50
  -6  -5 -11  -16.10   35.00
  -6  -5 -11    6.20   15.40
  -6  -5 -11   28.30   22.40
  -7  -5 -11  359.76   61.69
  -7  -5 -11  298.27   51.79
  -7  -5 -11  326.07   59.39
  -7  -5 -11  361.56  120.69
  -8  -5 -11 1731.13  158.38
  -8  -5 -11 1772.92  288.57
  -9  -5 -11  578.34   94.59
  -9  -5 -11  478.55  173.08
 -10  -5 -11  510.05   97.59
 -10  -5 -11  614.64  199.98
   5  -6 -11  437.86   96.99
  -5   6  11  344.17  152.28
   4  -6 -11  117.09   55.49
  -4   6  11  124.29   72.99
  -4   6  11  331.37  141.59
   3  -6 -11   14.40   30.80
   3  -6 -11   46.00   45.30
  -3   6  11    0.10   42.10
  -3   6  11  -14.70   70.39
   2  -6 -11 1530.25  135.79
   2  -6 -11 1111.29  173.18
   2  -6 -11 1379.56  199.48
  -2   6  11 1560.34  258.07
  -2   6  11 1320.67  207.38
   1  -6 -11 1023.30  151.78
   1  -6 -11 1259.97  164.98
   1  -6 -11  883.91  107.29
  -1   6  11  987.20  201.08
  -1   6  11  815.72  156.28
   0  -6 -11   26.30   18.90
   0  -6 -11   18.30   31.30
   0  -6 -11   25.20   31.70
   0   6  11   11.20   36.70
   0   6  11   -3.10   61.89
  -1  -6 -11   61.69   22.70
  -1  -6 -11  188.88   52.99
  -1  -6 -11   52.69   35.70
  -2  -6 -11  233.28   55.49
  -2  -6 -11  289.27   58.89
  -2  -6 -11  262.67   40.20
  -2  -6 -11  203.08   56.69
  -2  -6 -11  394.86   71.49
  -3  -6 -11 3718.83  273.67
  -3  -6 -11 3919.01  291.67
  -3  -6 -11 3804.22  297.47
  -3  -6 -11 4080.19  299.87
  -3  -6 -11 3703.53  293.07
  -4  -6 -11  349.96   59.99
  -4  -6 -11  231.38   55.19
  -4  -6 -11  285.57   53.19
  -4  -6 -11  266.47   58.59
  -4  -6 -11  334.27   62.09
  -5  -6 -11  548.75   82.59
  -5  -6 -11  616.24   83.99
  -5  -6 -11  664.93   89.49
  -5  -6 -11  475.65   77.79
  -6  -6 -11   25.00   25.30
  -6  -6 -11   82.59   29.80
  -6  -6 -11   40.10   28.50
  -7  -6 -11  422.86   68.39
  -7  -6 -11  334.97   71.09
  -7  -6 -11  399.46  128.49
  -7  -6 -11  712.93   90.09
  -8  -6 -11  115.29   80.59
  -8  -6 -11   65.69   29.70
  -9  -6 -11  -10.90   27.80
  -9  -6 -11   13.80   67.99
 -10  -6 -11   33.50   39.70
 -10  -6 -11  138.79  104.79
  -4   7  11   64.09  115.59
   3  -7 -11  139.59   49.20
  -3   7  11  253.17  125.09
   2  -7 -11  911.11  155.78
   2  -7 -11  717.23  138.79
   2  -7 -11  885.31  111.19
  -2   7  11  917.01  220.28
   1  -7 -11   33.30   39.00
   1  -7 -11    1.10   29.30
   1  -7 -11    9.50   19.40
  -1   7  11   28.70   66.09
   0  -7 -11  302.17   78.19
   0  -7 -11  222.08   74.79
   0   7  11   77.39   96.59
  -1  -7 -11  522.25   97.49
  -1  -7 -11  763.12  120.39
   1   7  11  545.15  146.89
  -2  -7 -11 1115.89  131.59
  -2  -7 -11  907.11  116.79
  -2  -7 -11  962.00  133.09
   2   7  11 1627.74  262.07
  -3  -7 -11   67.79   32.90
  -3  -7 -11  149.19   46.80
  -3  -7 -11   96.49   37.40
  -3  -7 -11  104.99   37.00
  -4  -7 -11   86.89   39.50
  -4  -7 -11   71.19   35.60
  -4  -7 -11   33.20   24.30
  -4  -7 -11  198.28   48.80
  -5  -7 -11    9.30   20.20
  -5  -7 -11   33.00   29.10
  -5  -7 -11    2.00   24.00
  -6  -7 -11 1850.01  161.48
  -6  -7 -11 1895.01  169.18
  -7  -7 -11 1272.37  136.69
  -7  -7 -11 1262.77  228.58
  -7  -7 -11 1048.60  136.69
  -7  -7 -11 1567.44  166.48
  -8  -7 -11  117.99   44.00
  -8  -7 -11  153.78   49.90
  -8  -7 -11   28.80   83.79
  -9  -7 -11   47.70   86.59
  -9  -7 -11  124.09   50.49
 -10  -7 -11  197.88  143.39
 -10  -7 -11   65.89   48.20
  -3   8  11  310.67  142.69
   2  -8 -11  165.68   73.19
  -2   8  11  259.77  136.39
   1  -8 -11  679.93  130.39
   1  -8 -11  362.86  102.39
  -1   8  11  470.25  172.88
   0  -8 -11    1.90   39.90
   0  -8 -11   21.20   34.50
   0   8  11   57.89   76.69
  -1  -8 -11 1013.90  152.78
  -1  -8 -11  887.11  130.99
   1   8  11  865.11  214.78
  -2  -8 -11  155.38   61.49
  -2  -8 -11  169.58   49.00
   2   8  11  225.18  105.99
  -3  -8 -11  375.66   86.59
  -3  -8 -11  592.64   94.59
  -3  -8 -11  597.44   90.19
   3   8  11  808.02  192.98
  -4  -8 -11  141.29   46.00
  -4  -8 -11  129.59   42.10
  -4  -8 -11  120.09   51.79
   4   8  11  174.68  101.29
  -5  -8 -11 1278.17  140.09
  -5  -8 -11 1231.48  162.28
  -5  -8 -11  956.60  131.29
  -6  -8 -11  362.46   68.09
  -6  -8 -11  227.68   61.79
  -6  -8 -11  266.37   70.79
  -7  -8 -11   20.70   27.90
  -7  -8 -11   11.40   28.20
  -7  -8 -11   53.79   47.50
  -8  -8 -11  107.09   44.70
  -8  -8 -11  154.78   58.39
  -8  -8 -11  119.79   38.90
   8   8  11   96.09   94.79
  -9  -8 -11  668.43  118.69
   9   8  11  321.17  162.48
 -10  -8 -11 1761.02  215.08
   2  -9 -11  592.94  161.38
  -2   9  11  750.92  220.48
   1  -9 -11  138.79   71.59
  -1   9  11  290.87  156.68
   0  -9 -11 1118.79  182.58
   0   9  11 1112.89  243.38
  -1  -9 -11  388.86  100.29
   1   9  11  468.85  163.98
  -2  -9 -11  411.76  100.89
   2   9  11  391.06  146.29
  -3  -9 -11  632.44  118.59
  -3  -9 -11  252.47   62.49
   3   9  11  421.36  148.09
  -4  -9 -11  631.54  115.89
  -4  -9 -11  547.95  113.89
  -4  -9 -11  583.24   95.99
   4   9  11  633.64  162.58
  -5  -9 -11  918.11  148.59
  -5  -9 -11  690.93  108.39
  -5  -9 -11  862.21  129.89
  -6  -9 -11  112.99   58.89
  -6  -9 -11   42.10   34.40
  -7  -9 -11  114.49   42.30
  -8  -9 -11 1052.59  159.18
  -8  -9 -11  647.84  105.19
   8   9  11  807.72  191.88
  -9  -9 -11  378.16  103.99
   9   9  11  385.66  151.78
   0 -10 -11  -16.50   37.80
   0  10  11   44.00  100.19
  -1 -10 -11  716.53  150.08
   1  10  11 1064.99  237.78
  -2 -10 -11   56.69   42.30
   2  10  11   67.29   78.19
  -3 -10 -11  699.33  136.19
  -3 -10 -11  762.92  114.89
   3  10  11  720.23  184.88
  -4 -10 -11  484.35  109.19
  -4 -10 -11  414.56   78.99
   4  10  11  376.46  146.59
  -5 -10 -11  379.46  105.29
  -5 -10 -11  549.25   96.49
  -6 -10 -11  455.95  108.59
  -6 -10 -11  388.76   80.39
  -7 -10 -11   53.29   37.10
  -7 -10 -11   45.50   45.10
   7  10  11   74.09   80.69
  -8 -10 -11  966.90  131.99
  -8 -10 -11 1254.47  191.48
   8  10  11  697.73  195.08
  -9 -10 -11   -8.00   51.79
  -2 -11 -11   18.00   44.70
   2  11  11  108.19  114.29
  -3 -11 -11  101.79   67.49
   3  11  11  151.38  109.29
  -4 -11 -11  411.96   85.59
  -4 -11 -11  460.65  109.99
   4  11  11  313.57  132.29
  -5 -11 -11  341.57   76.79
  -5 -11 -11  331.77  102.69
  -6 -11 -11  140.69   57.49
  -6 -11 -11  221.78   84.19
  -7 -11 -11  529.25  126.49
  -7 -11 -11  888.51  131.59
   7  11  11  689.13  208.38
  -3  -9  12  114.59   81.19
  -3  -9  12   31.00   58.79
   2   9 -12  228.68  109.09
  -2  -9  12   84.99   63.89
  -2  -9  12  131.39   89.39
   1   9 -12  -95.99   56.09
  -1  -9  12  -38.60   62.49
  -5  -8  12  143.59   85.79
  -4  -8  12 2659.43  335.67
   3   8 -12  624.74  139.29
  -3  -8  12  538.95  133.99
  -3  -8  12  942.21  181.98
   2   8 -12   74.89   64.29
   2   8 -12  109.89   75.39
  -2  -8  12  135.59   80.49
  -2  -8  12  164.18   88.99
   1   8 -12   45.90   70.39
   1   8 -12  271.47  100.49
  -1  -8  12  115.79   92.49
   0   8 -12   -3.50   41.90
   0   8 -12   30.60   65.29
   0  -8  12   61.29   67.59
  -1   8 -12  395.06  137.69
  -1   8 -12  277.77   95.19
   1  -8  12  365.26  118.39
  -2   8 -12  -77.99   46.00
  -2   8 -12   -6.40   92.09
   6   7 -12   24.50   56.19
  -6  -7  12  173.48   79.09
  -5  -7  12  156.18   78.09
  -4  -7  12    9.20   39.20
   3   7 -12  204.78   72.19
  -3  -7  12  154.88   76.69
  -3  -7  12  340.77  109.79
   2   7 -12   61.29   50.89
   2   7 -12   13.60   49.40
  -2  -7  12   52.09   54.99
  -2  -7  12   19.90   57.59
   1   7 -12 1462.75  221.48
   1   7 -12 1913.91  257.67
  -1  -7  12 1827.42  268.37
   0   7 -12 1803.82  253.67
   0   7 -12 1876.71  242.28
   0  -7  12 2128.89  281.37
  -1   7 -12   23.60   68.79
  -1   7 -12   23.20   44.30
   1  -7  12   37.80   55.19
  -2   7 -12  194.58  113.59
  -2   7 -12   88.29   63.59
   2  -7  12   79.69   71.09
  -3   7 -12   66.69   45.90
  -3   7 -12   -9.00   77.19
   3  -7  12   35.80   52.19
  -7  -6  12   82.59   79.29
   6   6 -12 1516.55  201.88
  -6  -6  12 2221.98  289.57
  -5  -6  12 1062.89  191.68
  -4  -6  12   43.40   61.99
   3   6 -12  -64.59   33.30
  -3  -6  12   31.90   55.29
  -3  -6  12    9.60   53.69
   2   6 -12  387.86  105.09
   2   6 -12  353.56   92.29
  -2  -6  12  342.17  104.39
  -2  -6  12  545.55  122.19
   1   6 -12   66.99   53.69
   1   6 -12  109.09   62.39
  -1  -6  12  122.29   61.79
   0   6 -12   62.99   63.29
   0   6 -12   -0.20   37.90
   0  -6  12   54.49   59.19
  -1   6 -12  372.26  124.69
  -1   6 -12  278.57   86.49
   1  -6  12  301.07   95.89
  -2   6 -12  533.95  109.09
  -2   6 -12  702.03  166.58
   2  -6  12  409.16  117.09
  -3   6 -12 2027.10  236.88
   3  -6  12 2258.17  284.87
  -4   6 -12  318.37  120.89
  -4   6 -12  316.87   95.09
   4  -6  12  423.26  113.09
  -7  -5  12  609.34  148.09
  -7  -5  12  322.87  119.89
  -6  -5  12  345.77  117.29
  -5  -5  12  918.41  182.88
   4   5 -12 1422.96  197.28
  -4  -5  12 1111.59  199.58
   3   5 -12  690.83  128.49
  -3  -5  12  981.60  182.18
   2   5 -12 3005.40  256.37
   2   5 -12 2709.73  261.27
  -2  -5  12 2795.12  281.07
  -2  -5  12 2956.00  292.97
   1   5 -12  139.19   60.89
   1   5 -12  116.39   58.69
  -1  -5  12  102.29   68.39
   0   5 -12  -18.70   42.20
   0   5 -12  -13.00   33.70
   0  -5  12   14.50   40.90
  -1   5 -12   71.79   50.99
  -1   5 -12  198.78   77.39
   1  -5  12  151.58   73.99
  -2   5 -12   86.09   46.10
  -2   5 -12   78.09   74.69
   2  -5  12  -17.80   34.40
  -3   5 -12  -14.00   58.49
  -3   5 -12  -25.00   29.50
   3  -5  12  -10.50   35.90
  -4   5 -12  191.08  107.79
  -4   5 -12  298.57   76.29
   4  -5  12  365.06  112.49
  -5   5 -12   14.20   45.40
  -5   5 -12  -32.30   56.39
   5  -5  12  -45.90   34.10
  -7  -4  12  388.46  140.49
  -7  -4  12  414.16  118.99
  -6  -4  12  257.37  109.99
  -6  -4  12  250.57   97.19
   5   4 -12   30.50   35.60
  -5  -4  12  -11.50   46.20
   4   4 -12  421.76  100.39
  -4  -4  12  501.85  130.59
   3   4 -12  355.36   92.19
  -3  -4  12  257.77   88.49
   2   4 -12  879.21  117.99
   2   4 -12  672.33  118.79
  -2  -4  12  728.43  144.79
  -2  -4  12  844.52  156.38
   1   4 -12 2893.21  246.68
   1   4 -12 2789.32  249.97
  -1  -4  12 2506.45  308.77
  -1  -4  12 2514.75  319.77
   0   4 -12   32.00   39.60
   0   4 -12    5.80   36.00
   0  -4  12  -31.70   38.20
  -1   4 -12 2985.30  269.47
  -1   4 -12 2659.13  242.78
   1  -4  12 2421.56  297.37
  -2   4 -12  992.60  172.08
  -2   4 -12  736.13  117.19
   2  -4  12  855.51  159.28
  -3   4 -12   67.89   41.90
  -3   4 -12  -22.00   47.90
   3  -4  12   44.20   42.80
  -4   4 -12  239.98   61.69
  -4   4 -12  125.59   67.39
   4  -4  12  187.08   76.79
  -5   4 -12  107.99   50.69
  -5   4 -12  -14.80   52.99
   5  -4  12   62.89   66.99
  -6   4 -12   70.99   83.29
  -6   4 -12   65.99   44.00
   6  -4  12  107.89   95.39
  -8  -3  12   20.60   89.09
  -7  -3  12  897.91  176.58
  -7  -3  12  879.91  200.78
  -6  -3  12 1809.22  257.37
  -6  -3  12 2400.86  332.17
  -5  -3  12   90.29   76.99
  -5  -3  12  -16.30   44.70
   4   3 -12 1397.16  184.38
  -4  -3  12 1005.10  183.98
   3   3 -12    2.60   31.30
  -3  -3  12   61.39   49.00
   2   3 -12  471.85   74.19
   2   3 -12  654.33  110.89
  -2  -3  12  590.44  122.89
  -2  -3  12  426.76  113.29
   1   3 -12  242.88   62.79
   1   3 -12  289.77   65.09
  -1  -3  12  312.27   93.39
  -1  -3  12  292.67   96.59
   0   3 -12  379.16   78.39
   0   3 -12  229.88   66.29
   0  -3  12  250.27   89.39
  -1   3 -12  160.08   55.89
  -1   3 -12  202.28   70.19
   1  -3  12  259.27   81.99
  -2   3 -12 2240.98  195.18
  -2   3 -12 2196.18  223.98
   2  -3  12 1983.90  262.97
  -3   3 -12  609.44  129.39
  -3   3 -12  579.44   94.19
  -4   3 -12 1676.33  164.78
  -4   3 -12 1989.20  255.17
  -4   3 -12 1305.37  163.88
  -5   3 -12 1746.23  251.07
  -5   3 -12 1680.93  185.68
  -5   3 -12 1676.93  207.58
   5  -3  12 1155.88  217.38
  -6   3 -12  142.59   51.69
  -6   3 -12   88.39   74.29
  -6   3 -12  198.58   78.69
   6  -3  12   14.30   65.39
  -7   3 -12   58.49   69.59
  -7   3 -12   41.00   39.30
  -7   3 -12    5.10   47.60
   7  -3  12  -30.80   67.19
  -8  -2  12  338.27  129.69
  -7  -2  12  608.24  178.88
  -6  -2  12   89.69   62.49
  -6  -2  12   -3.40   61.29
  -5  -2  12  114.29   83.69
  -5  -2  12  181.88   84.79
   4   2 -12  673.43   92.29
   4   2 -12 1001.00  149.49
  -4  -2  12  675.03  151.78
   3   2 -12 3935.51  324.97
   2   2 -12  416.26   87.19
  -2  -2  12  553.44  121.09
   1   2 -12 1233.18  124.69
   1   2 -12 1415.36  162.38
  -1  -2  12 1817.32  226.98
  -1  -2  12 1364.66  202.48
   0   2 -12  516.35   87.69
   0   2 -12  418.36   80.99
   0  -2  12  478.65  115.69
  -1   2 -12   96.29   42.10
  -1   2 -12  116.89   28.60
  -1   2 -12  111.89   45.70
   1  -2  12   45.40   42.70
  -2   2 -12   23.70   26.70
  -2   2 -12   56.89   29.80
  -2   2 -12   97.49   52.59
  -3   2 -12  296.97   90.79
  -3   2 -12  147.69   52.59
  -3   2 -12  162.38   44.90
  -3   2 -12  135.59   46.60
  -4   2 -12   15.50   24.40
  -4   2 -12   -1.40   35.40
  -4   2 -12    7.90   42.90
  -5   2 -12 1203.78  192.28
  -5   2 -12 1079.89  163.48
  -5   2 -12  850.31  111.29
   5  -2  12  628.64  145.59
  -6   2 -12 1543.05  217.78
  -6   2 -12 1258.07  150.58
  -6   2 -12 1401.26  217.18
   6  -2  12 1303.77  219.98
  -7   2 -12   77.09   68.49
  -7   2 -12    8.80   56.59
  -7   2 -12   83.39   40.10
   7  -2  12   83.79   76.49
  -8   2 -12 1382.46  168.28
  -8   2 -12 1184.48  223.78
  -8   2 -12 1463.55  231.98
   8  -2  12  830.92  186.38
  -7  -1  12   24.20   80.59
   6   1 -12  496.55  111.99
  -6  -1  12  543.65  156.88
   5   1 -12  722.23  129.79
  -5  -1  12  838.52  190.18
  -5  -1  12  486.95  124.59
   4   1 -12 1250.27  175.38
   4   1 -12 1192.48  169.78
  -4  -1  12 1927.81  274.37
  -4  -1  12 1295.67  201.48
   3   1 -12   51.39   43.10
   3   1 -12   27.00   36.10
  -3  -1  12   -2.70   41.10
   2   1 -12  -32.30   35.70
   2   1 -12   30.70   27.20
  -2  -1  12    1.70   37.80
   1   1 -12   88.69   50.89
   1   1 -12   72.09   38.00
   1   1 -12   75.59   26.30
  -1  -1  12   23.20   51.19
  -1  -1  12  111.49   67.99
   0   1 -12 3431.16  266.77
   0   1 -12 3391.66  268.37
   0   1 -12 3626.64  432.96
   0   1 -12 3602.84  305.27
   0  -1  12 3575.14  324.97
  -1   1 -12 2274.67  178.48
  -1   1 -12 2254.17  216.88
  -1   1 -12 2422.86  187.58
  -1   1 -12 1971.30  193.48
  -1   1 -12 2111.89  279.47
  -2   1 -12  269.57   73.29
  -2   1 -12  263.97   52.79
  -2   1 -12  163.38   47.40
  -3   1 -12  931.61  128.59
  -3   1 -12  766.22   97.39
  -3   1 -12 1183.98  161.08
  -4   1 -12    1.80   19.40
  -4   1 -12   19.00   36.60
  -4   1 -12   23.60   42.10
  -5   1 -12    4.30   17.30
  -5   1 -12   19.20   39.80
  -5   1 -12   24.50   39.60
  -6   1 -12  249.18   92.79
  -6   1 -12  175.48   46.10
  -6   1 -12  302.57   96.89
  -7   1 -12  -25.10   19.90
  -7   1 -12  -55.59   50.09
  -7   1 -12   33.70   59.99
  -8   1 -12  132.79   45.80
  -8   1 -12   41.10   77.59
  -8   1 -12   77.99   76.39
   8  -1  12  164.18   83.79
   7   0 -12   87.29   58.39
  -7   0  12   79.29   97.59
   6   0 -12  -21.90   41.30
  -6   0  12   29.40   73.79
   5   0 -12 1283.97  177.98
  -5   0  12 1959.80  288.07
   4   0 -12  796.02  136.39
   4   0 -12 1078.09  153.88
  -4   0  12 1208.28  218.18
   3   0 -12  332.07   75.89
   3   0 -12  359.46   86.49
  -3   0  12  242.48   83.59
  -3   0  12  250.47  100.79
   2   0 -12   13.70   27.40
   2   0 -12  -15.90   29.70
  -2   0  12   -6.70   38.70
   1   0 -12 2043.30  286.07
   1   0 -12 1936.01  175.58
   1   0 -12 2296.47  211.98
  -1   0  12 2093.89  258.17
   0   0 -12  171.98   87.19
   0   0 -12  328.57   82.99
   0   0 -12  190.28   47.50
   0   0 -12  213.98   45.00
   0   0 -12  252.37   46.20
   0   0 -12  237.18   46.60
  -1   0 -12  173.88   48.90
  -1   0 -12  120.89   70.69
  -1   0 -12  151.78   37.50
  -1   0 -12  261.37   70.09
  -1   0 -12  157.28   36.90
  -2   0 -12  116.99   45.10
  -2   0 -12   72.09   26.00
  -2   0 -12   98.29   30.90
  -2   0 -12   35.60   48.30
  -2   0 -12   84.39   39.80
  -3   0 -12 1045.50   94.99
  -3   0 -12 1177.68  152.98
  -3   0 -12 1150.68  154.68
  -3   0 -12 1283.27  101.59
  -4   0 -12 4147.49  339.27
  -4   0 -12 3983.50  285.07
  -4   0 -12 3844.32  337.07
  -5   0 -12  176.78   68.49
  -5   0 -12  144.79   31.60
  -5   0 -12  171.78   74.89
  -5   0 -12   89.29   29.30
  -6   0 -12 1305.07  200.28
  -6   0 -12  793.42  153.08
  -6   0 -12 1012.40  110.49
  -7   0 -12   11.70   58.79
  -7   0 -12   84.59   56.59
  -7   0 -12   47.50   28.70
  -8   0 -12   -3.90   45.80
  -8   0 -12   25.40   31.00
  -8   0 -12   14.00   61.09
  -9   0 -12  240.68  116.59
  -9   0 -12   96.59   48.20
   7  -1 -12   93.79   60.09
  -7   1  12   90.89  104.89
   6  -1 -12 1839.02  225.58
  -6   1  12 1762.22  311.97
   5  -1 -12  610.64  113.19
  -5   1  12  599.04  163.78
   4  -1 -12  228.58   75.39
   4  -1 -12  274.97   74.39
  -4   1  12  316.37  115.49
   3  -1 -12   88.59   50.59
   3  -1 -12   64.39   41.50
  -3   1  12   20.40   56.49
   2  -1 -12 1124.49  201.38
   2  -1 -12 1088.99  156.38
   2  -1 -12 1261.87  148.79
  -2   1  12 1121.09  169.78
  -2   1  12  996.70  216.48
   1  -1 -12 2556.74  326.57
   1  -1 -12 2840.82  223.58
   1  -1 -12 2400.46  242.88
  -1   1  12 3094.99  268.77
   0  -1 -12  113.19   50.29
   0  -1 -12   48.10   56.19
   0  -1 -12   74.49   25.90
   0  -1 -12   72.99   26.20
   0  -1 -12   17.80   19.80
  -1  -1 -12  726.83   78.59
  -1  -1 -12  686.13   92.59
  -1  -1 -12  897.91  170.18
  -1  -1 -12  653.23  112.99
  -1  -1 -12  708.03   66.49
  -2  -1 -12  504.65   54.59
  -2  -1 -12  275.97   96.19
  -2  -1 -12  515.05   49.00
  -2  -1 -12  631.04   93.99
  -3  -1 -12  467.35   94.29
  -3  -1 -12  382.96   84.09
  -3  -1 -12  563.34   44.90
  -3  -1 -12  471.35   52.99
  -4  -1 -12  -10.00   10.50
  -4  -1 -12   22.60   20.10
  -4  -1 -12  -15.90   36.20
  -4  -1 -12    3.20   33.70
  -4  -1 -12   19.50   12.50
  -5  -1 -12   42.00   16.10
  -5  -1 -12   -4.10   33.20
  -5  -1 -12    8.20   16.30
  -5  -1 -12   14.30   50.19
  -6  -1 -12  303.47   48.80
  -6  -1 -12  230.48  100.99
  -6  -1 -12  320.07   95.39
  -7  -1 -12 1887.71  254.27
  -7  -1 -12 2397.96  184.08
  -7  -1 -12 2194.78  292.17
  -8  -1 -12 1241.28  240.08
  -8  -1 -12  723.43  163.08
  -8  -1 -12 1132.39  131.89
  -9  -1 -12  288.77  131.89
  -9  -1 -12  150.88   52.59
   7  -2 -12  231.78   88.99
   7  -2 -12  156.38   83.49
  -7   2  12   53.89   91.69
   6  -2 -12  -13.20   41.50
  -6   2  12  -49.70   77.19
   5  -2 -12  730.13  121.59
  -5   2  12  471.15  150.48
   4  -2 -12    4.00   29.90
   4  -2 -12   35.50   38.70
   4  -2 -12  -14.30   44.20
  -4   2  12   11.10   61.29
   3  -2 -12 1429.36  179.78
   3  -2 -12 1455.75  177.28
   3  -2 -12 1607.84  230.58
  -3   2  12 1614.64  263.77
   2  -2 -12 1608.94  177.68
   2  -2 -12 1409.96  212.28
   2  -2 -12 1339.17  158.18
  -2   2  12 1196.48  214.18
   1  -2 -12  290.47  101.99
   1  -2 -12  362.56   68.99
   1  -2 -12  391.86   82.39
   0  -2 -12  417.76   65.29
   0  -2 -12  580.44   99.39
   0  -2 -12  637.34  140.79
   0  -2 -12  632.74   81.19
  -1  -2 -12  104.19   47.30
  -1  -2 -12  225.38   89.99
  -1  -2 -12  158.28   31.50
  -1  -2 -12  207.28   36.50
  -2  -2 -12 3965.60  281.47
  -2  -2 -12 4049.49  335.97
  -2  -2 -12 5241.28  402.26
  -3  -2 -12  503.55   80.49
  -3  -2 -12  628.74  133.59
  -4  -2 -12  272.27   78.89
  -4  -2 -12  345.87   60.39
  -5  -2 -12  124.79   22.50
  -5  -2 -12  115.99   35.40
  -5  -2 -12   70.99   27.70
  -5  -2 -12  153.08   59.29
  -5  -2 -12   90.89   61.59
  -6  -2 -12  553.84   65.39
  -6  -2 -12  723.33  157.88
  -6  -2 -12  477.45   60.29
  -6  -2 -12  400.36  102.99
  -6  -2 -12  468.15   62.49
  -7  -2 -12  -70.29   38.50
  -7  -2 -12    3.80   19.40
  -7  -2 -12   -6.60   44.80
  -8  -2 -12   24.10   59.29
  -8  -2 -12   -1.40   24.40
  -8  -2 -12  -12.30   73.39
  -9  -2 -12   15.80   30.10
  -9  -2 -12   15.00   95.99
   6  -3 -12  259.57   78.89
  -6   3  12  212.28  113.89
   5  -3 -12  606.14  106.89
  -5   3  12  314.57  120.19
   4  -3 -12  -31.10   43.60
   4  -3 -12   24.10   40.70
   4  -3 -12   12.50   34.60
  -4   3  12    4.00   55.69
   3  -3 -12  493.55   97.79
   3  -3 -12  571.84   96.99
   3  -3 -12  531.55  131.09
  -3   3  12  494.15  141.29
   2  -3 -12  201.38   58.89
   2  -3 -12  120.89   65.79
   2  -3 -12  171.48   54.59
  -2   3  12  151.78   83.79
   1  -3 -12  508.15   87.29
   1  -3 -12  510.85  117.19
   1  -3 -12  596.84   91.99
  -1   3  12  549.05  141.39
   0  -3 -12  985.40  132.09
   0  -3 -12  823.22   99.29
   0  -3 -12  689.33  141.09
  -1  -3 -12 2434.76  183.18
  -1  -3 -12 2408.46  186.58
  -1  -3 -12 2681.43  221.58
  -1  -3 -12 2405.76  289.77
  -1  -3 -12 2393.86  220.28
  -2  -3 -12  545.95   99.09
  -2  -3 -12  570.14   52.59
  -2  -3 -12  732.53  143.59
  -2  -3 -12  609.94   93.69
  -2  -3 -12  632.54   55.99
  -3  -3 -12  463.65  117.39
  -3  -3 -12  283.27   60.29
  -4  -3 -12   28.60   24.30
  -4  -3 -12   63.19   44.70
  -4  -3 -12   77.09   33.20
  -5  -3 -12 2246.58  161.08
  -5  -3 -12 2185.28  184.28
  -5  -3 -12 2618.54  190.48
  -5  -3 -12 2445.76  249.08
  -6  -3 -12 1630.34  125.89
  -6  -3 -12 1698.03  138.69
  -6  -3 -12 1040.00  202.08
  -6  -3 -12 1745.63  135.09
  -7  -3 -12   20.70   60.99
  -7  -3 -12  111.49   32.30
  -8  -3 -12   25.30   23.50
  -8  -3 -12   53.19   77.59
  -9  -3 -12  151.08   99.49
  -9  -3 -12  100.99   43.40
  -9  -3 -12  185.68   90.99
 -10  -3 -12   36.70   41.80
 -10  -3 -12    9.30   94.99
  10   3  12   75.49   60.89
   6  -4 -12  639.64  129.09
  -6   4  12  663.03  179.58
   5  -4 -12  435.06   95.49
  -5   4  12  326.77  120.89
   4  -4 -12  846.92  140.39
   4  -4 -12  953.70  135.39
  -4   4  12  544.65  151.58
   3  -4 -12   56.09   40.50
   3  -4 -12  164.68   50.09
   3  -4 -12  199.18   81.49
  -3   4  12  176.88   97.39
   2  -4 -12  531.25   99.39
   2  -4 -12  965.20  166.18
   2  -4 -12  870.61  115.69
  -2   4  12  845.42  174.88
   1  -4 -12   58.39   50.39
   1  -4 -12  142.79   46.40
   1  -4 -12   14.70   26.40
  -1   4  12   64.49   63.99
   0  -4 -12 1121.29  134.89
   0  -4 -12 1257.57  145.29
   0  -4 -12 1397.36  187.68
   0   4  12 1785.02  246.18
  -1  -4 -12   71.69   35.60
  -1  -4 -12   32.50   30.80
  -1  -4 -12   12.00   36.80
  -1  -4 -12   47.40   24.60
  -2  -4 -12 1239.98  144.39
  -2  -4 -12 1294.37  181.08
  -2  -4 -12 1411.16  100.29
  -2  -4 -12 1192.38  136.49
  -2  -4 -12  793.82   85.39
  -2  -4 -12  990.30  122.09
  -3  -4 -12   11.30   23.10
  -3  -4 -12   11.70   32.60
  -3  -4 -12   41.60   17.60
  -3  -4 -12   -5.90   19.80
  -3  -4 -12   30.90   12.30
  -3  -4 -12   69.99   54.69
  -4  -4 -12 1599.44  151.48
  -4  -4 -12 1798.22  152.48
  -4  -4 -12 1698.53  119.89
  -4  -4 -12 1710.73  224.38
  -5  -4 -12  649.93  132.29
  -5  -4 -12  476.95   50.79
  -5  -4 -12  479.65   69.49
  -5  -4 -12  498.25   75.09
  -6  -4 -12  673.33   88.99
  -6  -4 -12  893.41   93.59
  -6  -4 -12  475.85  129.49
  -6  -4 -12  743.73   69.29
  -7  -4 -12  468.45   67.59
  -7  -4 -12  431.76  137.09
  -8  -4 -12  471.85  153.58
  -8  -4 -12  593.04   86.69
  -9  -4 -12 2280.87  184.88
  -9  -4 -12 1478.95  242.38
  -9  -4 -12 1492.15  281.17
 -10  -4 -12   95.69   44.50
 -10  -4 -12   79.79  103.69
   5  -5 -12   53.39   47.90
  -5   5  12   50.19   73.19
  -5   5  12   66.59   82.99
   4  -5 -12  376.26   81.79
   4  -5 -12  224.48   77.79
  -4   5  12  270.07  112.09
   3  -5 -12 1383.76  166.08
   3  -5 -12 1529.45  257.87
   3  -5 -12 1895.41  227.48
  -3   5  12 1848.92  266.87
   2  -5 -12    7.90   33.10
   2  -5 -12  -23.70   33.60
   2  -5 -12   35.60   27.40
  -2   5  12   35.90   61.59
   1  -5 -12  834.92  131.89
   1  -5 -12 1301.47  118.39
   1  -5 -12 1188.68  170.58
  -1   5  12  988.70  181.88
   0  -5 -12  383.96   66.49
   0  -5 -12  396.76   78.39
   0  -5 -12  649.24  117.29
   0   5  12  488.25  118.09
  -1  -5 -12 1026.50  123.99
  -1  -5 -12 1161.28  108.09
  -1  -5 -12 1055.49  151.88
  -1  -5 -12  921.11  123.09
  -2  -5 -12 1006.70  113.19
  -2  -5 -12  889.01  114.29
  -2  -5 -12 1028.80  123.09
  -2  -5 -12  923.91  121.29
  -2  -5 -12 1218.28  157.68
  -3  -5 -12  413.66   73.29
  -3  -5 -12  454.05   75.69
  -3  -5 -12  454.35   78.99
  -3  -5 -12  297.17   81.59
  -3  -5 -12  523.65   69.69
  -4  -5 -12  765.32   84.39
  -4  -5 -12  736.63  109.19
  -4  -5 -12  628.74   91.59
  -4  -5 -12  563.64   86.99
  -4  -5 -12  831.72  133.59
  -5  -5 -12  212.28   37.40
  -5  -5 -12  144.89   65.09
  -5  -5 -12  134.89   43.90
  -5  -5 -12  130.49   37.50
  -6  -5 -12  268.47   54.19
  -6  -5 -12  238.38   50.09
  -6  -5 -12  308.27   91.29
  -6  -5 -12  269.07   46.90
  -6  -5 -12  325.97  105.29
  -7  -5 -12  614.64   80.59
  -7  -5 -12  473.25   78.39
  -7  -5 -12  654.93   79.09
  -7  -5 -12  569.54  158.48
  -8  -5 -12  388.96  145.39
  -8  -5 -12  668.43   91.09
  -9  -5 -12  153.58  111.59
  -9  -5 -12  409.36   76.59
 -10  -5 -12  304.57  140.29
 -10  -5 -12  504.25   93.69
   4  -6 -12  279.57   71.29
  -4   6  12  312.87  111.19
  -4   6  12  263.77  133.99
   3  -6 -12  223.78   59.79
   3  -6 -12  184.08   71.19
  -3   6  12  281.27   96.19
  -3   6  12  181.28  103.99
   2  -6 -12  108.99   54.09
   2  -6 -12  200.98   51.79
   2  -6 -12   51.89   56.19
  -2   6  12  263.17  114.69
  -2   6  12  196.38   89.09
   1  -6 -12   -2.40   43.30
   1  -6 -12   94.59   50.39
   1  -6 -12   50.69   29.40
  -1   6  12   50.39   58.89
   0  -6 -12 1837.12  223.28
   0  -6 -12 2094.99  190.58
   0  -6 -12 1728.83  154.18
   0   6  12 2131.39  274.47
  -1  -6 -12  204.58   41.30
  -1  -6 -12  215.38   57.29
  -1  -6 -12  215.38   71.19
  -2  -6 -12  456.55   81.39
  -2  -6 -12  812.32   73.89
  -2  -6 -12  675.23   95.49
  -2  -6 -12  525.35   95.59
  -2  -6 -12  643.64   97.69
  -3  -6 -12  667.63   91.99
  -3  -6 -12  561.54   76.09
  -3  -6 -12  662.03   96.89
  -3  -6 -12  526.15   82.89
  -3  -6 -12  534.25   94.59
  -4  -6 -12  806.62  107.49
  -4  -6 -12  825.72  116.29
  -4  -6 -12  734.03  100.79
  -4  -6 -12  798.72  101.79
  -4  -6 -12  804.32  101.59
  -5  -6 -12 1501.35  129.39
  -5  -6 -12 1173.38  153.78
  -5  -6 -12 1379.86  156.68
  -5  -6 -12 1474.55  135.19
  -5  -6 -12 1570.74  142.29
  -6  -6 -12   45.10   25.30
  -6  -6 -12   35.00   30.40
  -6  -6 -12   10.20   18.70
  -7  -6 -12  726.93  168.08
  -7  -6 -12  512.65   79.79
  -7  -6 -12  759.92   99.89
  -7  -6 -12  746.63   95.69
  -8  -6 -12    2.90   24.70
  -8  -6 -12   59.09   68.89
  -9  -6 -12  263.67  128.99
  -9  -6 -12  288.37   73.19
 -10  -6 -12  145.69   54.79
 -10  -6 -12  -27.60   98.39
   3  -7 -12   72.79   57.39
  -3   7  12  165.68  117.49
   2  -7 -12   10.70   34.20
  -2   7  12   38.20   69.19
   1  -7 -12  455.05  111.99
   1  -7 -12  327.77   89.19
  -1   7  12  168.68  113.49
   0  -7 -12  821.42  134.59
   0  -7 -12  504.25  105.69
   0   7  12  622.24  170.98
  -1  -7 -12   56.49   38.00
  -1  -7 -12   30.50   36.40
   1   7  12   -2.60   67.19
  -2  -7 -12  334.27   76.29
  -2  -7 -12  313.67   66.29
  -2  -7 -12  344.77   74.09
  -3  -7 -12 1151.18  136.39
  -3  -7 -12 1275.27  141.39
  -3  -7 -12 1061.59  141.19
  -3  -7 -12 1198.78  141.99
  -4  -7 -12 1056.49  130.79
  -4  -7 -12  924.51  120.69
  -4  -7 -12  896.71  119.09
  -5  -7 -12  270.37   62.59
  -5  -7 -12  117.99   43.60
  -5  -7 -12   89.09   36.00
  -6  -7 -12  440.36   81.49
  -6  -7 -12  565.64   83.99
  -7  -7 -12  255.47   60.59
  -7  -7 -12  322.77   61.59
  -7  -7 -12  217.58  101.19
  -7  -7 -12  265.27   63.79
  -8  -7 -12 1158.58  142.89
  -8  -7 -12 1518.25  162.18
  -8  -7 -12 1057.99  229.28
  -9  -7 -12  359.86   75.49
  -9  -7 -12  365.66  156.48
 -10  -7 -12  498.35   99.79
 -10  -7 -12  572.14  184.18
  -2   8  12 2014.20  340.27
   1  -8 -12  734.03  143.69
   1  -8 -12 1429.26  193.18
  -1   8  12 1389.06  268.67
   0  -8 -12   16.70   32.80
   0  -8 -12   22.20   43.50
   0   8  12  -16.40   71.89
  -1  -8 -12   87.89   46.00
  -1  -8 -12   88.69   49.99
   1   8  12  -89.39   54.99
  -2  -8 -12   92.19   53.09
  -2  -8 -12  159.78   52.39
   2   8  12  314.37  127.29
  -3  -8 -12 1037.40  130.29
  -3  -8 -12  961.30  139.29
  -3  -8 -12  949.71  124.79
   3   8  12 1207.48  232.28
  -4  -8 -12  126.19   43.80
  -4  -8 -12  130.69   45.50
  -4  -8 -12  267.87   71.19
   4   8  12  324.97  119.59
  -5  -8 -12  408.76   85.29
  -5  -8 -12  307.17   68.89
  -5  -8 -12  489.35   83.79
  -6  -8 -12   -3.40   31.70
  -6  -8 -12   56.49   36.20
  -6  -8 -12    6.60   27.60
  -7  -8 -12 1007.40  139.79
  -7  -8 -12 1478.65  168.58
  -7  -8 -12 1040.20  133.89
  -8  -8 -12   62.99   37.00
  -8  -8 -12  108.19   80.49
  -8  -8 -12   -2.90   28.80
  -8  -8 -12   21.90   34.70
  -9  -8 -12  115.79   60.39
   1  -9 -12   42.80   51.59
  -1   9  12  -15.80   81.69
   0  -9 -12  113.59   63.49
   0   9  12   87.69  110.29
  -1  -9 -12  618.74  128.09
   1   9  12 1183.78  251.57
  -2  -9 -12 1744.93  231.48
   2   9  12 2096.19  331.37
  -3  -9 -12  187.68   68.99
  -3  -9 -12  240.08   59.99
   3   9  12  318.17  136.09
  -4  -9 -12    2.90   36.30
  -4  -9 -12   84.39   40.10
   4   9  12    4.10   74.99
  -5  -9 -12   52.59   32.40
  -5  -9 -12   42.80   39.00
   5   9  12  -39.20   57.49
  -6  -9 -12  736.43  113.39
  -6  -9 -12  856.51  139.89
  -7  -9 -12  526.95   90.79
  -8  -9 -12    9.60   45.20
  -8  -9 -12   90.69   45.80
  -9  -9 -12   59.59   56.79
   9   9  12   24.20   88.09
   0 -10 -12   86.39   66.09
   0  10  12   78.99  125.59
  -1 -10 -12    5.90   46.70
   1  10  12   78.39  113.49
  -2 -10 -12  -15.90   37.40
   2  10  12  -46.40   74.99
  -3 -10 -12  415.86  105.09
  -3 -10 -12  523.55   93.29
   3  10  12  839.22  213.88
  -4 -10 -12   89.19   57.49
  -4 -10 -12   59.09   43.70
   4  10  12   21.60   87.29
  -5 -10 -12 1550.34  184.88
  -5 -10 -12 1783.52  224.18
  -6 -10 -12  549.95   95.39
  -6 -10 -12  379.96   99.29
  -7 -10 -12  -28.30   28.70
  -7 -10 -12    9.80   39.20
  -8 -10 -12  -18.90   47.00
  -8 -10 -12   83.29   43.40
   8  10  12   17.30   72.49
  -2 -11 -12   53.49   64.49
   2  11  12   69.59  122.79
  -3 -11 -12  133.89   57.09
  -3 -11 -12   70.39   64.79
   3  11  12  258.67  138.59
  -4 -11 -12   41.70   39.80
   4  11  12   17.40   80.29
  -5 -11 -12  319.77   80.99
  -5 -11 -12  162.98   77.89
  -6 -11 -12  241.18   84.59
  -6 -11 -12  222.38   67.19
  -7 -11 -12   73.09   57.19
  -7 -11 -12  132.09   52.99
  -4  -8  13   26.00   60.79
  -3  -8  13  403.96  122.29
  -3  -8  13  388.46  119.79
   2   8 -13 1890.11  257.67
   2   8 -13 2236.08  279.17
  -2  -8  13 1582.84  254.47
  -2  -8  13 2746.53  336.57
   1   8 -13  133.49   81.49
   1   8 -13   89.69   75.59
  -1  -8  13   94.19   72.69
   0   8 -13 1484.75  229.58
   0   8 -13 1065.99  196.28
   0  -8  13 1253.07  225.68
  -1   8 -13  118.79   73.29
  -1   8 -13  352.66  136.19
   1  -8  13  292.97  109.39
  -6  -7  13   17.30   66.39
  -5  -7  13  360.26  109.79
  -4  -7  13  -24.70   59.49
   3   7 -13  181.88   79.29
  -3  -7  13  205.78   92.39
  -3  -7  13  130.19   75.39
   2   7 -13  207.78   82.69
   2   7 -13  137.99   71.09
  -2  -7  13  144.39   76.59
  -2  -7  13  323.67  113.09
   1   7 -13   -9.40   54.79
   1   7 -13   55.79   66.79
  -1  -7  13   95.79   70.19
   0   7 -13  226.68   87.49
   0   7 -13   84.39   75.79
   0  -7  13  403.56  116.69
  -1   7 -13 1008.90  169.58
  -1   7 -13 1434.06  233.28
   1  -7  13 1067.39  187.08
  -2   7 -13  643.64  169.68
  -2   7 -13  698.23  134.99
   2  -7  13  978.90  191.48
  -3   7 -13  769.02  192.28
  -3   7 -13  561.44  126.49
  -6  -6  13   10.80   61.19
  -5  -6  13  236.48   94.49
   4   6 -13 2360.06  283.17
  -4  -6  13 2742.53  336.57
   3   6 -13  323.57   90.39
  -3  -6  13  811.62  164.18
  -3  -6  13  474.95  126.99
   2   6 -13  267.37   80.79
   2   6 -13  169.78   69.39
  -2  -6  13  217.18   92.19
  -2  -6  13  205.08   94.39
   1   6 -13   -2.90   44.70
   1   6 -13   38.20   49.50
  -1  -6  13  -28.70   36.50
   0   6 -13  183.18   83.49
   0   6 -13   74.09   63.89
   0  -6  13  112.69   79.49
  -1   6 -13    9.40   40.00
  -1   6 -13   49.60   71.59
   1  -6  13   59.19   65.59
  -2   6 -13  115.59   87.79
  -2   6 -13   89.39   58.19
   2  -6  13  110.19   76.99
  -3   6 -13  -57.49   46.30
  -3   6 -13    5.30   50.89
   3  -6  13  119.99   65.29
  -4   6 -13  594.94  126.69
  -4   6 -13  600.84  172.78
   4  -6  13  580.04  142.49
  -7  -5  13  164.18  102.09
  -7  -5  13  451.35  126.99
  -6  -5  13  210.98   93.19
  -5  -5  13 1321.17  229.68
   4   5 -13  262.27   79.09
  -4  -5  13  234.48   89.89
   3   5 -13   92.89   52.89
  -3  -5  13   53.69   54.19
   2   5 -13   96.49   55.69
   2   5 -13    3.70   33.90
  -2  -5  13   82.79   56.79
  -2  -5  13   16.80   57.29
   1   5 -13 1999.10  239.78
   1   5 -13 2157.28  217.58
  -1  -5  13 2394.36  309.67
   0   5 -13 2321.87  236.18
   0   5 -13 2138.89  253.77
   0  -5  13 2488.15  318.17
  -1   5 -13  133.59   65.39
  -1   5 -13   25.70   41.10
   1  -5  13   43.90   57.49
  -2   5 -13  179.28   96.79
  -2   5 -13  112.89   55.39
   2  -5  13  310.67   96.29
  -3   5 -13   35.80   46.90
  -3   5 -13   66.09   76.59
   3  -5  13   80.79   58.89
  -4   5 -13   14.80   64.59
  -4   5 -13   -2.40   37.40
   4  -5  13   27.40   50.19
  -5   5 -13  131.99  104.19
  -5   5 -13  117.09   53.39
   5  -5  13  135.69   71.89
  -7  -4  13   47.50   84.79
  -7  -4  13   95.19   70.39
  -6  -4  13 1207.98  204.18
  -6  -4  13 1000.60  203.98
  -5  -4  13  774.02  163.68
   4   4 -13   86.09   54.79
  -4  -4  13  119.79   65.59
   3   4 -13  -51.29   24.80
  -3  -4  13   57.09   53.09
   2   4 -13 1035.60  146.79
  -2  -4  13 1305.77  200.88
  -2  -4  13 1058.79  183.08
   1   4 -13  351.66   81.69
  -1  -4  13  299.77  102.39
   0   4 -13  -11.00   39.70
   0   4 -13   71.19   47.20
   0  -4  13   54.79   55.09
  -1   4 -13  127.79   59.79
   1  -4  13   39.00   60.59
  -2   4 -13  792.32  147.99
  -2   4 -13  637.94  116.69
   2  -4  13  687.33  149.29
  -3   4 -13 2829.62  257.87
  -3   4 -13 3305.07  313.67
   3  -4  13 3117.59  301.77
  -4   4 -13  211.98   97.59
  -4   4 -13  224.58   68.19
   4  -4  13  217.58   82.89
  -5   4 -13  303.77  108.09
  -5   4 -13  227.28   66.39
  -6   4 -13   15.50   38.80
  -6   4 -13   21.20   67.99
   6  -4  13   21.10   67.99
  -7  -3  13  808.32  165.48
  -7  -3  13  754.62  191.18
  -6  -3  13  397.66  126.29
  -6  -3  13  545.05  156.68
   5   3 -13  500.05  116.09
  -5  -3  13  835.92  172.98
   4   3 -13  646.54  123.09
  -4  -3  13  467.75  128.59
   3   3 -13 1001.40  155.68
  -3  -3  13 1042.80  189.58
   2   3 -13 1522.35  191.08
  -2  -3  13 1860.91  260.77
  -2  -3  13 1548.05  219.18
   1   3 -13   15.00   26.10
   1   3 -13  -14.10   22.10
  -1  -3  13   39.30   42.60
  -1  -3  13   41.60   47.50
   0   3 -13  295.47   71.49
   0   3 -13  132.99   48.90
   0  -3  13  152.78   80.79
  -1   3 -13  745.63  128.09
  -1   3 -13  783.72  118.49
   1  -3  13  477.95  126.79
  -2   3 -13  593.84  121.59
  -2   3 -13  775.32  116.99
   2  -3  13  771.22  156.98
  -3   3 -13   90.59   42.00
  -3   3 -13   35.50   50.09
  -4   3 -13  191.48   54.99
  -4   3 -13  190.18   86.99
  -5   3 -13  128.39   51.69
  -5   3 -13  118.29   71.39
   5  -3  13   46.90   68.09
  -6   3 -13 2593.74  310.47
  -6   3 -13 1771.52  204.58
   6  -3  13 1565.74  269.17
  -7   3 -13  792.02  126.89
  -7   3 -13  752.12  164.18
   7  -3  13  763.02  181.78
  -7  -2  13  153.38   96.49
  -6  -2  13  776.32  188.48
  -6  -2  13  716.23  159.38
   5   2 -13  148.59   73.09
  -5  -2  13  276.97  101.19
  -5  -2  13  193.38   95.89
   4   2 -13  879.41  141.09
  -4  -2  13 1128.79  191.28
   3   2 -13 1207.48  161.98
  -3  -2  13  946.71  180.08
   2   2 -13  661.33  112.89
  -2  -2  13  943.01  169.08
   1   2 -13 1312.77  120.59
   1   2 -13 1014.90  138.49
  -1  -2  13 1353.56  195.68
  -1  -2  13 1372.36  201.68
   0   2 -13  -14.80   19.80
   0   2 -13   17.40   27.50
   0  -2  13  -19.90   44.20
  -1   2 -13 3042.00  239.68
  -1   2 -13 2448.85  250.07
  -1   2 -13 2409.56  219.08
   1  -2  13 2422.06  298.67
  -2   2 -13  511.45  108.09
  -2   2 -13  425.76   79.99
  -3   2 -13  360.86   90.79
  -3   2 -13  287.67   65.49
  -3   2 -13  232.58   53.39
  -4   2 -13  151.08   44.40
  -4   2 -13  172.88   75.39
  -4   2 -13  166.58   61.89
  -5   2 -13  672.13   98.99
  -5   2 -13  779.62  150.38
  -5   2 -13  670.13  124.49
  -6   2 -13  -53.79   43.70
  -6   2 -13    7.50   49.90
  -6   2 -13   25.40   27.40
   6  -2  13   81.19   73.19
  -7   2 -13  108.49   79.19
  -7   2 -13  167.28   79.49
  -7   2 -13  136.19   50.19
   7  -2  13  156.28   94.39
   7   1 -13  700.43  144.29
  -7  -1  13  649.34  187.48
   6   1 -13  781.42  152.88
  -6  -1  13  993.60  219.78
   5   1 -13  -23.90   34.90
   5   1 -13   -0.10   35.40
  -5  -1  13  108.49   66.69
  -5  -1  13   53.29   56.89
   4   1 -13  815.52  137.99
   4   1 -13  784.12  139.89
  -4  -1  13  848.62  161.68
  -4  -1  13  665.33  159.08
   3   1 -13  238.18   78.49
   3   1 -13  160.08   57.79
  -3  -1  13  343.77  103.19
   2   1 -13  688.83  126.99
   2   1 -13 1110.99  137.39
  -2  -1  13  542.45  131.09
   1   1 -13  490.25   85.99
   1   1 -13  375.66   94.99
   1   1 -13  519.35   64.49
  -1  -1  13  759.72  144.79
  -1  -1  13  472.55  127.19
   0   1 -13 1635.14  248.28
   0   1 -13 1463.75  195.18
   0   1 -13 1402.76  138.19
   0   1 -13 1473.35  136.79
   0  -1  13 2035.30  264.27
  -1   1 -13  334.17  108.79
  -1   1 -13  387.16   67.09
  -1   1 -13  510.75   70.59
  -1   1 -13  391.56   89.99
  -1   1 -13  406.76   83.09
  -2   1 -13 1452.75  177.38
  -2   1 -13 1505.95  133.59
  -2   1 -13 1346.17  133.19
  -3   1 -13  402.26   91.69
  -3   1 -13  448.76   66.99
  -3   1 -13  314.57   71.69
  -4   1 -13 1201.38  112.19
  -4   1 -13 1087.49  163.28
  -4   1 -13 1265.57  161.58
  -5   1 -13 1417.26  192.88
  -5   1 -13 1323.37  143.69
  -5   1 -13 1518.65  215.48
  -6   1 -13  106.29   39.00
  -6   1 -13   94.39   69.79
  -6   1 -13   83.49   63.39
  -7   1 -13   28.30   59.19
  -7   1 -13   12.60   62.49
  -7   1 -13    5.00   23.80
  -8   1 -13  285.57   72.59
  -8   1 -13  266.97  114.69
  -8   1 -13  212.18   98.29
   8  -1  13  375.26  145.19
   7   0 -13  661.33  138.49
  -7   0  13 1270.17  256.67
   6   0 -13  330.27   95.29
  -6   0  13  220.48  127.49
   5   0 -13  333.37   88.39
   5   0 -13  422.56  105.69
  -5   0  13  446.56  153.18
   4   0 -13  341.97   86.49
   4   0 -13  270.27   82.69
  -4   0  13  467.15  147.39
   3   0 -13 1729.43  202.78
   3   0 -13 1743.73  224.28
  -3   0  13 2018.20  291.27
  -3   0  13 2028.00  265.47
   2   0 -13  486.65   87.99
   2   0 -13  339.27   91.09
  -2   0  13  733.73  147.29
   1   0 -13  860.61  140.59
   1   0 -13  902.91  180.38
   1   0 -13  797.92  108.29
  -1   0  13  807.22  150.18
   0   0 -13   10.00   52.79
   0   0 -13   54.69   27.30
   0   0 -13   41.60   39.70
   0   0 -13   74.09   29.30
  -1   0 -13 1868.01  211.28
  -1   0 -13 1221.68  215.98
  -1   0 -13 1476.95  133.39
  -1   0 -13 1777.42  154.18
  -2   0 -13  -11.90   40.00
  -2   0 -13   58.99   24.00
  -2   0 -13   56.69   35.50
  -2   0 -13   88.49   38.80
  -3   0 -13  916.31   88.19
  -3   0 -13  993.70  143.39
  -3   0 -13 1043.90  139.79
  -4   0 -13  646.14  117.49
  -4   0 -13  554.64   70.29
  -4   0 -13  528.45  110.29
  -5   0 -13  835.02   97.39
  -5   0 -13 1152.68  172.28
  -5   0 -13 1196.28  172.68
  -6   0 -13  898.81  166.18
  -6   0 -13  653.23  137.99
  -6   0 -13  933.01  101.29
  -7   0 -13  175.58   88.69
  -7   0 -13  280.17   91.79
  -7   0 -13  206.28   51.09
  -8   0 -13 1575.54  143.99
  -8   0 -13 1442.36  244.48
  -8   0 -13 1159.08  202.58
   7  -1 -13  -42.50   43.80
   6  -1 -13   -9.80   45.20
  -6   1  13   98.59  103.39
   5  -1 -13  865.21  151.48
   5  -1 -13  604.44  121.39
  -5   1  13  510.15  164.18
   4  -1 -13 2533.45  251.37
   4  -1 -13 2923.11  262.67
  -4   1  13 2592.14  361.66
   3  -1 -13  119.19   51.49
   3  -1 -13   69.59   44.10
  -3   1  13  118.99   85.39
   2  -1 -13  534.75  111.69
   2  -1 -13  662.33  153.68
   2  -1 -13  490.95   94.59
  -2   1  13  711.63  134.49
   1  -1 -13  424.86   97.39
   1  -1 -13  438.26   72.99
   1  -1 -13  427.66  129.59
  -1   1  13  419.66  107.09
   0  -1 -13 1398.26  127.89
   0  -1 -13 1478.55  121.59
   0  -1 -13 1536.75  240.88
   0  -1 -13 1261.77  175.18
  -1  -1 -13 2278.07  172.28
  -1  -1 -13 2151.38  295.97
  -1  -1 -13 2059.49  213.18
  -1  -1 -13 2302.77  188.48
  -2  -1 -13  325.67   45.70
  -2  -1 -13  247.58   70.89
  -2  -1 -13  359.06   73.69
  -2  -1 -13  379.96   46.00
  -2  -1 -13  385.36  114.29
  -3  -1 -13  426.76   44.80
  -3  -1 -13  461.85   92.79
  -3  -1 -13  324.87   76.39
  -3  -1 -13  401.96  117.19
  -3  -1 -13  467.75   43.50
  -4  -1 -13  559.14  110.99
  -4  -1 -13  518.65   54.69
  -4  -1 -13  328.67   66.99
  -4  -1 -13  537.15  103.59
  -5  -1 -13  460.45  105.99
  -5  -1 -13  215.88   48.60
  -5  -1 -13  355.26   45.60
  -5  -1 -13  255.07   91.69
  -6  -1 -13  462.05   61.79
  -6  -1 -13  419.06  107.39
  -6  -1 -13  462.75  129.09
  -7  -1 -13  276.97   52.59
  -7  -1 -13  123.09   77.79
  -7  -1 -13  232.08   89.19
  -8  -1 -13  266.07  125.09
  -8  -1 -13  328.07   65.89
  -8  -1 -13  275.97  101.79
  -9  -1 -13  792.12  202.48
  -9  -1 -13  481.15  141.89
  -9  -1 -13  820.92  117.19
   6  -2 -13  -52.59   40.00
  -6   2  13   79.19  103.09
   5  -2 -13  548.25  121.19
   5  -2 -13  406.46   96.29
  -5   2  13  323.17  130.89
   4  -2 -13  177.78   67.39
   4  -2 -13  319.77  141.39
   4  -2 -13  158.28   61.99
  -4   2  13  276.07  111.29
   3  -2 -13  260.37   96.19
   3  -2 -13  198.58   69.99
   3  -2 -13  398.26   92.59
  -3   2  13  166.18   95.09
   2  -2 -13   52.39   39.20
   2  -2 -13   80.69   72.09
   2  -2 -13   57.79   41.00
  -2   2  13  152.38   88.09
   1  -2 -13 3632.54  289.37
   1  -2 -13 3554.64  356.86
   1  -2 -13 3834.32  320.57
   0  -2 -13  548.95  141.89
   0  -2 -13  604.34   72.29
   0  -2 -13  560.14   78.39
   0  -2 -13  572.74  105.49
  -1  -2 -13  236.18   50.59
  -1  -2 -13  180.18   64.89
  -1  -2 -13  271.77   44.70
  -1  -2 -13  330.77  108.29
  -2  -2 -13  184.68   28.00
  -2  -2 -13  197.88   27.90
  -2  -2 -13  122.69   55.29
  -2  -2 -13  213.58   90.59
  -3  -2 -13  687.23  144.59
  -3  -2 -13  595.54   92.19
  -4  -2 -13 1984.80  295.77
  -4  -2 -13 3118.29  265.27
  -4  -2 -13 2620.14  246.28
  -4  -2 -13 2897.41  225.88
  -5  -2 -13    2.30   17.00
  -5  -2 -13   10.00    9.70
  -5  -2 -13   50.79   50.59
  -5  -2 -13   10.50   33.70
  -6  -2 -13  434.16  125.69
  -6  -2 -13 1030.60  160.28
  -6  -2 -13  641.04   60.99
  -7  -2 -13   47.10   65.59
  -7  -2 -13   55.19   24.20
  -7  -2 -13   46.90   69.49
  -8  -2 -13  408.86   67.69
  -8  -2 -13  323.97  125.09
  -8  -2 -13  463.55  123.79
  -9  -2 -13   13.90   78.79
  -9  -2 -13  -54.79   51.49
  -9  -2 -13   15.80   27.90
   6  -3 -13 2070.09  239.38
  -6   3  13 1108.09  245.58
   5  -3 -13  352.46   93.59
   5  -3 -13  231.28   86.79
  -5   3  13  188.28  120.29
   4  -3 -13   77.09   47.30
   4  -3 -13   -9.80   40.20
  -4   3  13   47.50   80.29
   3  -3 -13   41.10   41.50
   3  -3 -13   21.40   34.30
   3  -3 -13  118.39   78.39
  -3   3  13  -51.69   56.29
   2  -3 -13  199.68   89.09
   2  -3 -13  250.77   73.89
   2  -3 -13  260.27   69.59
  -2   3  13  287.37  116.59
   1  -3 -13  687.23  112.69
   1  -3 -13  655.23  100.69
   1  -3 -13  814.32  157.98
  -1   3  13 1098.19  197.78
   0  -3 -13   18.70   50.59
   0  -3 -13  120.59   37.50
   0  -3 -13  119.49   54.29
  -1  -3 -13  113.19   45.70
  -1  -3 -13  310.77  101.59
  -1  -3 -13  235.58   44.00
  -1  -3 -13  217.48   63.89
  -2  -3 -13 2038.10  191.98
  -2  -3 -13 1956.50  152.48
  -2  -3 -13 2144.69  155.18
  -2  -3 -13 2370.66  289.57
  -2  -3 -13 2352.66  210.28
  -3  -3 -13 3116.09  298.17
  -3  -3 -13 2740.53  248.68
  -3  -3 -13 2653.53  233.68
  -4  -3 -13   35.50   25.10
  -4  -3 -13   67.29   54.79
  -5  -3 -13  342.27   62.69
  -5  -3 -13  316.37   93.79
  -5  -3 -13  294.97   55.29
  -5  -3 -13  405.76  110.79
  -6  -3 -13  319.97   38.60
  -6  -3 -13  372.56  108.49
  -6  -3 -13  241.18   48.50
  -6  -3 -13  166.38   42.20
  -7  -3 -13 1913.61  142.99
  -7  -3 -13 1304.27  235.88
  -7  -3 -13 1702.43  243.28
  -8  -3 -13  443.66  146.49
  -8  -3 -13  683.13   84.99
  -8  -3 -13  576.64  146.99
  -9  -3 -13  136.99   94.09
  -9  -3 -13  420.26  142.29
  -9  -3 -13  394.26   72.59
   5  -4 -13  875.71  143.19
  -5   4  13  368.16  131.99
   4  -4 -13   14.90   38.90
   4  -4 -13   26.30   45.10
  -4   4  13   58.29   77.29
   3  -4 -13 1746.53  257.87
   3  -4 -13 2039.20  191.08
  -3   4  13 1707.63  281.57
   2  -4 -13 1713.03  244.98
   2  -4 -13 1726.13  201.08
   2  -4 -13 1584.14  183.28
  -2   4  13 1705.93  264.97
   1  -4 -13   56.59   49.40
   1  -4 -13   30.30   32.20
   1  -4 -13   15.60   26.10
  -1   4  13  -28.60   49.80
   0  -4 -13  225.88   76.99
   0  -4 -13  118.39   47.30
   0  -4 -13   66.19   32.10
  -1  -4 -13  204.68   46.70
  -1  -4 -13   85.99   41.10
  -1  -4 -13  108.29   46.20
  -1  -4 -13  196.98   81.49
  -2  -4 -13  750.12  117.79
  -2  -4 -13  880.41  119.99
  -2  -4 -13  786.62  149.09
  -2  -4 -13  767.32   86.69
  -3  -4 -13   71.39   35.60
  -3  -4 -13   14.60   45.80
  -3  -4 -13   26.30   37.60
  -3  -4 -13  132.59   26.10
  -3  -4 -13   77.79   35.10
  -4  -4 -13  493.95   81.29
  -4  -4 -13  518.45   83.39
  -4  -4 -13  598.24  130.89
  -5  -4 -13   58.59   27.90
  -5  -4 -13  102.89   35.30
  -5  -4 -13   99.19   15.00
  -5  -4 -13  139.69   69.69
  -6  -4 -13 1710.83  150.58
  -6  -4 -13 1743.33  126.69
  -6  -4 -13 1208.28  211.58
  -6  -4 -13 1769.42  251.67
  -6  -4 -13 1703.93  145.39
  -7  -4 -13  243.88   44.60
  -7  -4 -13  233.48  105.99
  -8  -4 -13   94.59   81.39
  -8  -4 -13  112.39   37.00
  -9  -4 -13   82.89   78.89
  -9  -4 -13   49.00   35.60
  -9  -4 -13   72.19   93.29
 -10  -4 -13  801.82  120.99
 -10  -4 -13  990.40  243.48
   5  -5 -13  149.29   67.29
  -5   5  13  129.39   88.89
   4  -5 -13   93.99   69.89
   4  -5 -13   34.40   40.10
  -4   5  13   52.99   70.79
   3  -5 -13   25.80   42.80
   3  -5 -13   31.40   41.10
  -3   5  13   94.49   83.39
   2  -5 -13  318.57   86.79
   2  -5 -13  495.75  121.19
   2  -5 -13  340.37   71.79
  -2   5  13  296.87  108.59
   1  -5 -13  770.72  120.89
   1  -5 -13  634.64   98.19
   1  -5 -13  541.35  130.39
  -1   5  13  784.22  173.18
   0  -5 -13 1561.94  207.08
   0  -5 -13 1366.96  138.19
   0  -5 -13 1363.86  165.38
   0   5  13 1755.92  250.67
  -1  -5 -13 3396.66  252.67
  -1  -5 -13 2911.11  245.88
  -1  -5 -13 3164.08  285.37
  -1  -5 -13 2858.11  254.87
  -1  -5 -13 3004.50  264.37
  -2  -5 -13  132.29   45.30
  -2  -5 -13  197.58   53.09
  -2  -5 -13  143.99   38.10
  -2  -5 -13  134.69   64.49
  -2  -5 -13  154.18   50.99
  -3  -5 -13  100.39   42.20
  -3  -5 -13   51.19   35.80
  -3  -5 -13   62.09   25.50
  -3  -5 -13   30.90   49.90
  -3  -5 -13    0.80   22.70
  -4  -5 -13   52.59   42.10
  -4  -5 -13   31.50   45.80
  -4  -5 -13   72.19   32.70
  -4  -5 -13   39.20   29.70
  -4  -5 -13   74.99   25.10
  -5  -5 -13  645.04  129.59
  -5  -5 -13  744.63  100.59
  -5  -5 -13  874.71  112.19
  -5  -5 -13  859.61   71.59
  -6  -5 -13  470.75   78.39
  -6  -5 -13  507.75   79.69
  -6  -5 -13  658.93  144.99
  -6  -5 -13  526.75  119.79
  -6  -5 -13  645.24   67.59
  -7  -5 -13  412.46   59.69
  -7  -5 -13  363.66   66.69
  -7  -5 -13  309.47   59.19
  -7  -5 -13  176.48   92.89
  -8  -5 -13   11.00   67.99
  -8  -5 -13   51.79   29.90
  -9  -5 -13 1241.48  145.59
  -9  -5 -13 1286.87  261.87
 -10  -5 -13  586.74  100.59
 -10  -5 -13  361.46  174.48
 -10  -5 -13  292.07  116.49
   4  -6 -13  376.06  113.59
   4  -6 -13  569.34  106.19
  -4   6  13  373.06  144.49
  -4   6  13  478.45  139.09
   3  -6 -13   27.00   48.30
   3  -6 -13    7.80   34.20
  -3   6  13   25.80   68.49
  -3   6  13  -85.19   60.59
   2  -6 -13  109.49   45.90
   2  -6 -13   27.80   42.80
  -2   6  13  157.98   81.29
   1  -6 -13   86.59   44.50
   1  -6 -13  125.49   64.49
   1  -6 -13  233.98   52.79
  -1   6  13  143.59   80.59
   0  -6 -13   80.49   30.30
   0  -6 -13  104.79   56.09
   0  -6 -13   52.59   39.60
   0   6  13  102.59   78.99
  -1  -6 -13   18.30   33.90
  -1  -6 -13    5.00   25.60
  -1  -6 -13    2.70   22.30
   1   6  13  132.99   68.59
  -2  -6 -13 1109.29  136.39
  -2  -6 -13 1138.59  109.59
  -2  -6 -13  987.50  130.49
  -2  -6 -13 1490.05  179.48
  -2  -6 -13 1246.08  150.88
  -3  -6 -13    6.90   22.10
  -3  -6 -13  -13.30   22.90
  -3  -6 -13   33.50   32.80
  -3  -6 -13   23.50   24.50
  -3  -6 -13   14.60   24.90
  -4  -6 -13 2866.11  238.48
  -4  -6 -13 3088.19  260.97
  -4  -6 -13 2889.71  238.58
  -4  -6 -13 2876.51  245.38
  -4  -6 -13 2877.61  226.98
  -5  -6 -13  823.72  110.89
  -5  -6 -13  830.02   93.29
  -5  -6 -13  900.01  120.79
  -6  -6 -13   81.49   38.40
  -6  -6 -13   65.79   34.70
  -6  -6 -13   33.70   23.10
  -7  -6 -13   70.89   61.69
  -7  -6 -13    2.70   26.30
  -7  -6 -13   55.69   28.40
  -7  -6 -13   -1.90   23.20
  -8  -6 -13  294.07   58.79
  -8  -6 -13  235.08  117.39
  -9  -6 -13 1570.74  165.08
  -9  -6 -13  987.20  229.98
 -10  -6 -13    3.70   89.79
 -10  -6 -13   41.20   38.30
   3  -7 -13  656.93  140.29
  -3   7  13 1266.87  247.68
   2  -7 -13   64.09   53.19
  -2   7  13   -0.30   66.09
   1  -7 -13 1044.60  159.38
   1  -7 -13  974.80  167.28
  -1   7  13 1071.49  226.88
   0  -7 -13  363.56   90.29
   0  -7 -13  443.66   96.69
   0   7  13  266.97  122.09
  -1  -7 -13   92.39   47.60
  -1  -7 -13  187.58   59.89
  -2  -7 -13  334.47   75.09
  -2  -7 -13  444.56   87.79
  -2  -7 -13  185.08   55.69
  -2  -7 -13  344.07   74.59
  -3  -7 -13   -4.50   34.60
  -3  -7 -13   -7.40   25.90
  -3  -7 -13   36.50   28.50
  -3  -7 -13   74.69   36.00
  -4  -7 -13  201.38   57.29
  -4  -7 -13  210.68   53.59
  -4  -7 -13  127.29   52.69
  -5  -7 -13  563.24   90.59
  -5  -7 -13  539.55   91.59
  -5  -7 -13  576.24   95.09
  -6  -7 -13  170.58   52.29
  -6  -7 -13  367.06   70.69
  -7  -7 -13  988.30  117.29
  -7  -7 -13  868.21  122.39
  -7  -7 -13  810.92  182.38
  -7  -7 -13  905.01  116.09
  -8  -7 -13 1250.37  140.59
  -8  -7 -13  906.51  218.08
  -9  -7 -13  245.28  123.89
  -9  -7 -13  128.59   50.19
   2  -8 -13   -0.80   49.90
  -2   8  13   52.89   91.69
   1  -8 -13  148.49   64.29
  -1   8  13   22.70   98.99
   0  -8 -13 1942.11  241.78
   0  -8 -13 2009.80  241.98
   0   8  13 1479.35  284.97
  -1  -8 -13  205.08   69.89
  -1  -8 -13  200.08   67.99
   1   8  13  150.98  105.89
  -2  -8 -13  785.62  119.49
  -2  -8 -13  785.52  133.09
   2   8  13  998.50  211.48
  -3  -8 -13  666.33  111.89
  -3  -8 -13  668.53  111.59
  -3  -8 -13  710.13  110.29
  -4  -8 -13   -9.90   25.80
  -4  -8 -13    4.00   27.50
  -4  -8 -13   19.10   24.80
  -5  -8 -13  666.93  109.89
  -5  -8 -13  760.52  115.39
  -5  -8 -13  486.15   89.39
  -6  -8 -13   42.00   41.10
  -6  -8 -13    9.40   25.10
  -6  -8 -13  -17.60   24.70
  -7  -8 -13  286.87   65.89
  -7  -8 -13  332.37   73.89
  -7  -8 -13  261.37   63.09
  -8  -8 -13   30.70   39.90
  -8  -8 -13  255.37  117.29
  -8  -8 -13   76.09   48.50
  -8  -8 -13   83.99   37.00
  -9  -8 -13  742.83  202.88
  -9  -8 -13  468.35   93.69
   1  -9 -13   61.69   52.09
  -1   9  13 -102.99   62.59
   0  -9 -13  240.38   81.49
   0   9  13   39.40  109.79
  -1  -9 -13   35.30   45.20
   1   9  13   14.40   97.19
  -2  -9 -13    6.90   36.20
   2   9  13   77.99   90.39
  -3  -9 -13 1378.16  181.58
  -3  -9 -13 1197.98  151.58
   3   9  13 1382.16  268.07
  -4  -9 -13 1222.28  162.48
  -4  -9 -13 1204.08  153.68
   4   9  13  947.61  219.28
  -5  -9 -13  145.79   50.69
  -5  -9 -13  177.88   64.09
   5   9  13  207.68  105.59
  -6  -9 -13 1119.39  151.98
  -6  -9 -13  885.01  126.89
  -7  -9 -13  235.28   57.59
  -8  -9 -13  257.37   75.29
  -8  -9 -13  400.26   81.29
  -9  -9 -13  115.39   56.19
  -1 -10 -13  -70.89   33.80
   1  10  13   -2.70   77.09
  -2 -10 -13   41.80   53.59
   2  10  13 -102.49   72.59
  -3 -10 -13  195.78   70.29
  -3 -10 -13  188.78   59.19
   3  10  13  190.28  120.89
  -4 -10 -13   29.60   32.50
  -4 -10 -13    2.20   40.90
   4  10  13  -12.20   80.49
  -5 -10 -13   91.59   53.29
  -5 -10 -13   51.09   44.10
   5  10  13   21.20   91.89
  -6 -10 -13  268.77   86.69
  -6 -10 -13  320.77   79.69
  -7 -10 -13 1492.25  173.28
  -7 -10 -13  908.31  150.78
  -8 -10 -13  -15.10   44.00
  -8 -10 -13  -29.60   33.20
  -3 -11 -13  -47.30   36.00
  -3 -11 -13  -14.70   33.00
   3  11  13  -22.90  105.19
  -4 -11 -13  160.78   65.69
  -4 -11 -13  188.28   70.89
   4  11  13   58.69  119.49
  -5 -11 -13   30.60   46.60
  -5 -11 -13   30.80   41.90
  -6 -11 -13    2.50   36.20
  -6 -11 -13   49.40   49.90
   3   8 -14  578.94  137.29
  -3  -8  14  435.96  122.19
  -3  -8  14  946.81  188.58
   2   8 -14  452.55  118.59
  -2  -8  14  633.14  153.58
  -2  -8  14  454.95  137.49
   1   8 -14  194.98   81.29
   1   8 -14  426.26  121.79
  -1  -8  14  383.96  119.89
  -5  -7  14  622.44  149.59
   4   7 -14   83.29   66.29
  -4  -7  14  252.07  105.09
   3   7 -14  811.92  150.78
  -3  -7  14 1112.79  209.58
  -3  -7  14  708.03  156.18
   2   7 -14    1.70   40.90
  -2  -7  14  -12.70   41.60
  -2  -7  14  -52.29   52.09
   1   7 -14  133.49   77.59
   1   7 -14   25.40   54.09
  -1  -7  14  117.59   87.29
   0   7 -14  378.06  110.89
   0   7 -14  384.16  112.39
   0  -7  14  313.27  115.09
  -1   7 -14  410.96  110.29
  -1   7 -14  282.37  118.29
   1  -7  14  429.36  137.19
  -2   7 -14  146.89   72.39
  -2   7 -14  197.38  109.89
   2  -7  14  133.39   79.39
  -6  -6  14  238.58  109.19
  -5  -6  14  286.97  111.19
   4   6 -14  528.15  119.39
  -4  -6  14  638.84  147.79
   3   6 -14  608.44  122.59
  -3  -6  14  645.44  150.28
   2   6 -14 1019.90  160.58
  -2  -6  14 1312.67  208.88
  -2  -6  14 1124.79  197.98
   1   6 -14  -21.90   38.70
   1   6 -14  119.89   67.89
  -1  -6  14  -69.49   32.40
   0   6 -14 1242.38  198.48
   0   6 -14 1258.57  193.08
   0  -6  14 1266.77  217.28
  -1   6 -14   86.69   79.19
  -1   6 -14   92.39   57.39
   1  -6  14   99.59   67.79
  -2   6 -14   90.39   81.79
  -2   6 -14  277.57   89.89
   2  -6  14  122.09   69.59
  -3   6 -14   46.90   50.69
  -3   6 -14   49.10   82.39
   3  -6  14   51.69   58.79
  -6  -5  14    3.40   53.49
   5   5 -14  161.48   77.59
  -5  -5  14   20.00   61.19
   4   5 -14  393.46  106.49
  -4  -5  14  428.36  126.79
   3   5 -14 1252.87  179.78
  -3  -5  14 1004.40  177.98
   2   5 -14   -7.50   35.80
  -2  -5  14   56.39   63.29
  -2  -5  14   89.89   65.19
   1   5 -14  621.64  120.99
   1   5 -14  705.43  126.69
  -1  -5  14  584.84  153.38
   0   5 -14  435.26  108.19
   0   5 -14  325.27   92.29
   0  -5  14  405.56  120.89
  -1   5 -14 1240.68  183.88
  -1   5 -14 1422.56  206.88
   1  -5  14 1347.67  216.18
  -2   5 -14  692.03  127.19
  -2   5 -14  674.83  148.59
   2  -5  14  463.05  128.19
  -3   5 -14  470.55  137.89
  -3   5 -14  736.83  126.29
   3  -5  14  474.25  129.19
  -4   5 -14  396.76  127.09
  -4   5 -14  708.13  127.59
   4  -5  14  454.95  122.69
  -5   5 -14   61.89   83.89
  -6  -4  14   24.20   64.79
   5   4 -14   91.79   62.89
  -5  -4  14  299.37  106.39
   4   4 -14 1738.13  225.78
  -4  -4  14 1380.26  243.78
   3   4 -14  372.76   93.89
  -3  -4  14  434.46  128.59
   2   4 -14  222.08   68.29
  -2  -4  14  220.48   92.09
  -2  -4  14  272.67   98.19
   1   4 -14   13.30   32.50
   1   4 -14   16.50   37.00
  -1  -4  14   56.99   56.49
   0   4 -14 1649.73  204.08
   0   4 -14 1615.94  199.48
   0  -4  14 1485.25  237.88
  -1   4 -14   48.00   43.30
  -1   4 -14   -8.10   41.10
   1  -4  14   72.69   60.29
  -2   4 -14  671.43  139.59
  -2   4 -14  332.57   80.49
   2  -4  14  393.96  115.09
  -3   4 -14  169.78   59.79
  -3   4 -14  228.28   94.39
   3  -4  14   90.49   68.79
  -4   4 -14  839.62  127.79
  -4   4 -14 1284.27  210.18
   4  -4  14  877.61  166.98
  -5   4 -14  808.82  166.68
  -5   4 -14  864.71  129.79
  -7  -3  14  116.09  109.39
  -6  -3  14  445.46  124.49
  -6  -3  14  702.93  187.78
   5   3 -14 2950.10  277.27
  -5  -3  14 2551.54  334.87
   4   3 -14  217.58   73.19
  -4  -3  14  234.28  101.99
   3   3 -14  118.49   55.89
  -3  -3  14  118.59   67.99
   2   3 -14   66.49   45.20
  -2  -3  14  155.88   76.99
   1   3 -14 1002.10  135.29
   1   3 -14  646.04  106.99
  -1  -3  14 1619.74  228.08
   0   3 -14 1358.76  166.18
   0   3 -14 1266.57  161.78
   0  -3  14 1326.97  216.68
  -1   3 -14  244.78   71.99
  -1   3 -14  116.79   53.69
   1  -3  14  198.88   85.89
  -2   3 -14  362.86   92.29
  -2   3 -14  293.47   74.19
   2  -3  14  386.56  115.49
  -3   3 -14  603.74   98.89
  -3   3 -14  501.55  117.79
  -4   3 -14  493.15   91.49
  -4   3 -14  498.15  121.69
  -5   3 -14   97.19   47.30
  -5   3 -14  181.38   79.09
  -6   3 -14  175.78   89.39
  -6   3 -14   79.99   45.80
   6  -3  14  -50.19   51.69
  -7  -2  14   85.99   93.59
  -6  -2  14  331.77  130.09
  -6  -2  14  278.87  104.59
   5   2 -14  199.98   75.89
  -5  -2  14  182.18   81.49
  -5  -2  14   63.19   76.39
   4   2 -14  418.76  100.09
  -4  -2  14  452.25  131.19
   3   2 -14    4.50   25.40
  -3  -2  14   69.49   66.49
   2   2 -14 2310.37  226.78
  -2  -2  14 3089.19  286.37
   1   2 -14  748.23  162.78
   1   2 -14 1238.88  150.58
  -1  -2  14 1177.08  200.18
  -1  -2  14 1085.69  174.68
   0   2 -14   18.50   38.50
   0   2 -14   13.70   26.10
   0   2 -14   13.10   27.20
   0  -2  14   -8.40   36.10
  -1   2 -14   11.30   27.90
  -1   2 -14  -15.60   23.90
  -1   2 -14   51.19   40.70
   1  -2  14   40.50   45.80
  -2   2 -14  765.92  134.19
  -2   2 -14  721.83  107.39
  -3   2 -14 1899.11  230.48
  -3   2 -14 1865.31  169.18
  -4   2 -14  103.09   65.99
  -4   2 -14   15.60   28.30
  -5   2 -14  281.97   63.49
  -5   2 -14  347.67  102.89
  -6   2 -14   53.69   39.90
  -6   2 -14   49.00   59.89
   6  -2  14    6.60   77.89
  -7   2 -14  355.76  115.29
  -7   2 -14  507.85   89.29
   7  -2  14  119.39   97.09
   7   1 -14 1800.22  252.47
   6   1 -14  451.95  112.69
  -6  -1  14  416.66  141.29
   5   1 -14   70.99   55.39
   5   1 -14   13.00   52.19
  -5  -1  14  -50.89   66.89
  -5  -1  14   13.70   48.10
   4   1 -14  142.39   73.39
   4   1 -14  201.28   70.99
  -4  -1  14  138.59   93.69
  -4  -1  14  101.79   65.69
   3   1 -14   62.59   50.29
   3   1 -14  102.79   49.00
  -3  -1  14   50.89   54.29
   2   1 -14  498.45  109.69
   2   1 -14  693.33  108.19
  -2  -1  14  536.55  127.59
   1   1 -14  103.59   57.79
   1   1 -14  140.09   50.99
  -1  -1  14  133.79   65.49
   0   1 -14  248.98   58.89
   0   1 -14  392.86   97.69
   0   1 -14  409.26  123.79
   0   1 -14  433.16   70.69
  -1   1 -14 1419.66  195.38
  -1   1 -14 1691.23  157.98
  -1   1 -14 1497.15  243.38
  -2   1 -14 1342.07  241.88
  -2   1 -14 2008.10  188.68
  -2   1 -14 1769.82  158.38
  -2   1 -14 1929.21  162.28
  -3   1 -14  154.38   60.79
  -3   1 -14  148.69   51.79
  -3   1 -14  205.78   47.80
  -4   1 -14   21.00   38.90
  -4   1 -14   13.60   40.40
  -4   1 -14   27.20   23.50
  -5   1 -14  151.88   62.59
  -5   1 -14  120.99   69.09
  -5   1 -14   86.69   34.30
  -6   1 -14 1082.49  187.08
  -6   1 -14 1588.44  216.88
  -6   1 -14 1377.86  147.89
  -7   1 -14  734.93  106.09
  -7   1 -14  734.13  153.18
  -7   1 -14  853.71  163.68
  -8   1 -14  251.97  104.59
  -8   1 -14   73.89   82.19
  -8   1 -14  215.28   62.69
   6   0 -14 1398.06  203.18
  -6   0  14 1028.30  223.38
   5   0 -14   43.50   58.19
   5   0 -14   93.19   59.39
  -5   0  14  115.49  100.49
   4   0 -14 1861.61  224.08
   4   0 -14 2002.00  246.58
  -4   0  14 1868.41  298.07
   3   0 -14 1605.24  227.08
   3   0 -14 2148.89  229.78
  -3   0  14 2259.17  289.57
   2   0 -14  127.59   51.89
   2   0 -14   83.49   57.49
  -2   0  14  253.07   94.69
   1   0 -14  228.78  102.39
   1   0 -14  280.77   82.19
   1   0 -14  300.97   65.29
  -1   0  14  123.39   72.19
   0   0 -14   58.69   26.20
   0   0 -14   86.49   46.60
   0   0 -14    7.30   44.90
   0   0 -14   79.69   32.30
  -1   0 -14 1650.93  155.08
  -1   0 -14 1554.74  139.29
  -1   0 -14 2022.10  277.77
  -1   0 -14 1856.31  214.78
  -2   0 -14   -5.10   14.90
  -2   0 -14   17.50   29.90
  -2   0 -14    4.50   26.50
  -2   0 -14   53.49   45.70
  -2   0 -14  -22.60   40.90
  -3   0 -14  304.67   54.99
  -3   0 -14  384.36   85.99
  -3   0 -14  509.95   92.89
  -4   0 -14  224.38   72.09
  -4   0 -14  252.47   77.59
  -4   0 -14  273.37   48.50
  -5   0 -14 1764.02  215.18
  -5   0 -14 1537.05  131.49
  -5   0 -14 1540.35  205.78
  -6   0 -14  295.77   97.29
  -6   0 -14  322.07   94.19
  -6   0 -14  339.17   58.09
  -7   0 -14    7.40   57.69
  -7   0 -14   64.59   60.19
  -7   0 -14   -5.10   22.80
  -8   0 -14  -21.20   65.89
  -8   0 -14  122.99   72.39
  -8   0 -14   -6.70   27.20
   6  -1 -14  207.98   84.59
  -6   1  14   88.29   95.39
   5  -1 -14   65.69   50.79
   5  -1 -14  119.09   66.39
  -5   1  14   30.40   80.29
   4  -1 -14  -25.90   41.30
   4  -1 -14   50.89   44.60
  -4   1  14  -19.20   63.59
   3  -1 -14 1033.60  143.29
   3  -1 -14 1142.29  250.87
   3  -1 -14 1253.37  175.68
  -3   1  14  454.65  148.69
   2  -1 -14 2138.69  312.87
   2  -1 -14 1991.50  250.07
   2  -1 -14 1991.10  191.18
  -2   1  14 2239.78  283.77
   1  -1 -14  587.84  156.08
   1  -1 -14  702.13  127.69
   1  -1 -14  621.14   97.09
  -1   1  14  810.12  146.99
   0  -1 -14 3686.83  415.56
   0  -1 -14 3009.90  278.67
   0  -1 -14 3119.59  239.68
   0  -1 -14 2963.20  225.98
  -1  -1 -14  977.00  117.19
  -1  -1 -14  901.11   87.59
  -1  -1 -14  997.40  155.48
  -1  -1 -14 1049.79  199.28
  -2  -1 -14  379.46  117.09
  -2  -1 -14  385.86   74.99
  -2  -1 -14  422.76   49.99
  -2  -1 -14  356.46   86.89
  -3  -1 -14  364.46   81.49
  -3  -1 -14  304.27   36.80
  -3  -1 -14  208.68   62.19
  -3  -1 -14  279.97  101.79
  -4  -1 -14  766.42  124.69
  -4  -1 -14  790.42  136.99
  -4  -1 -14  542.35   91.09
  -4  -1 -14  796.32   66.69
  -5  -1 -14  709.23  135.69
  -5  -1 -14  460.75   56.39
  -5  -1 -14  512.05   74.89
  -5  -1 -14  372.66   94.19
  -6  -1 -14  302.67   92.59
  -6  -1 -14  146.09   83.59
  -6  -1 -14  266.67   44.70
  -7  -1 -14    4.80   53.29
  -7  -1 -14   66.89   29.00
  -7  -1 -14   58.99   71.79
  -8  -1 -14  666.33   92.59
  -8  -1 -14  640.84  173.18
  -8  -1 -14  692.03  150.38
  -9  -1 -14  234.48  126.29
  -9  -1 -14  475.95  132.09
  -9  -1 -14  530.95   87.99
   6  -2 -14  393.06  110.49
  -6   2  14   68.19   84.39
   5  -2 -14  439.66  109.79
   5  -2 -14  402.06  110.39
  -5   2  14  624.14  167.28
   4  -2 -14   41.40   46.50
   4  -2 -14  174.08   70.99
  -4   2  14   91.19   87.49
   3  -2 -14  118.99   63.99
   3  -2 -14   51.59   38.70
   3  -2 -14  192.88   90.69
  -3   2  14   19.80   61.99
   2  -2 -14  186.68   69.79
   2  -2 -14  193.68   58.09
   2  -2 -14  127.49   85.29
  -2   2  14   31.60   69.49
   1  -2 -14   47.70   31.90
   1  -2 -14   82.79   73.29
   1  -2 -14   28.30   41.50
   0  -2 -14   90.69   35.00
   0  -2 -14  122.29   77.39
   0  -2 -14  112.99   60.39
  -1  -2 -14 1604.84  149.49
  -1  -2 -14 1656.63  137.69
  -1  -2 -14 1962.80  270.27
  -1  -2 -14 1915.11  219.28
  -2  -2 -14   55.99   45.00
  -2  -2 -14   14.90   59.59
  -2  -2 -14   56.19   31.10
  -2  -2 -14   41.70   16.90
  -3  -2 -14 2173.68  200.38
  -3  -2 -14 1944.21  189.38
  -3  -2 -14 2414.86  301.97
  -4  -2 -14 1718.73  206.98
  -4  -2 -14 1366.46  176.18
  -4  -2 -14 1513.35  161.68
  -4  -2 -14 1281.77  217.48
  -5  -2 -14  316.77   93.59
  -5  -2 -14  419.86   70.29
  -5  -2 -14  601.54  116.59
  -6  -2 -14  291.57   94.89
  -6  -2 -14  615.54  138.19
  -6  -2 -14  550.24   57.49
  -7  -2 -14  234.38   95.49
  -7  -2 -14  154.58   35.20
  -7  -2 -14  110.69   82.19
  -8  -2 -14 1006.70  184.28
  -8  -2 -14  667.73  172.98
  -8  -2 -14  975.50  109.69
  -9  -2 -14    0.00   69.59
  -9  -2 -14   -1.00   81.29
  -9  -2 -14   34.10   30.20
   5  -3 -14  920.61  167.88
   5  -3 -14 1581.84  202.18
  -5   3  14  836.32  213.98
   4  -3 -14 1949.41  230.18
   4  -3 -14 2092.59  256.17
  -4   3  14 1679.73  293.47
   3  -3 -14    2.40   63.29
   3  -3 -14  -22.60   29.70
   3  -3 -14   18.30   32.20
  -3   3  14  -73.99   51.69
   2  -3 -14 1286.87  170.78
   2  -3 -14 1419.76  183.88
   2  -3 -14 1515.45  244.28
  -2   3  14 1110.09  218.78
   1  -3 -14  131.79   61.39
   1  -3 -14  222.48   95.29
   1  -3 -14  119.29   45.70
  -1   3  14  240.68  122.19
   0  -3 -14  511.75  138.59
   0  -3 -14  338.27   63.09
   0  -3 -14  199.28   73.79
  -1  -3 -14  456.95   94.49
  -1  -3 -14  619.34  143.89
  -1  -3 -14  409.76   62.19
  -2  -3 -14   28.10   37.50
  -2  -3 -14  -24.50   30.70
  -2  -3 -14   40.90   16.80
  -2  -3 -14   -2.60   48.10
  -3  -3 -14   35.20   42.80
  -3  -3 -14   15.90   35.00
  -3  -3 -14   31.50   60.19
  -4  -3 -14 1508.05  166.08
  -4  -3 -14 1655.13  238.78
  -5  -3 -14  874.11  112.49
  -5  -3 -14  756.12  107.29
  -5  -3 -14  764.52  161.38
  -5  -3 -14  914.21  158.88
  -6  -3 -14  786.62   99.79
  -6  -3 -14  848.42  165.28
  -6  -3 -14  831.82  104.19
  -7  -3 -14  777.52   70.39
  -7  -3 -14  751.32  164.48
  -7  -3 -14  745.63  151.38
  -8  -3 -14  198.68  107.79
  -8  -3 -14  333.67  108.89
  -8  -3 -14  296.37   54.29
  -9  -3 -14  593.44  148.29
  -9  -3 -14  585.24  182.28
  -9  -3 -14  517.05   82.79
   5  -4 -14   24.50   48.80
   5  -4 -14   46.30   45.30
  -5   4  14  104.99   95.19
   4  -4 -14    6.40   40.20
   4  -4 -14   23.60   45.00
  -4   4  14   41.30   80.79
   3  -4 -14   28.00   38.90
   3  -4 -14   70.49   49.60
  -3   4  14  164.28   96.19
   2  -4 -14   50.39   38.90
   2  -4 -14  140.59   54.69
   2  -4 -14  127.99   83.89
  -2   4  14  164.78  105.89
   1  -4 -14 3412.06  283.97
   1  -4 -14 3763.02  346.17
   1  -4 -14 3256.07  288.07
  -1   4  14 3386.76  356.76
   0  -4 -14  885.91  171.78
   0  -4 -14 1020.90  140.39
   0  -4 -14  805.82  113.59
  -1  -4 -14  641.54  113.99
  -1  -4 -14  507.45  129.59
  -1  -4 -14  746.03  118.29
  -1  -4 -14  554.14   82.09
  -2  -4 -14  616.34   74.69
  -2  -4 -14  591.44  131.59
  -2  -4 -14  747.93  120.89
  -2  -4 -14  534.95   97.99
  -3  -4 -14   95.19   68.79
  -3  -4 -14  205.18   59.49
  -3  -4 -14  121.99   48.10
  -3  -4 -14  138.39   25.30
  -3  -4 -14   69.89   48.00
  -4  -4 -14  739.03  121.99
  -4  -4 -14  968.10  178.98
  -4  -4 -14  663.53  103.29
  -4  -4 -14  779.72  108.99
  -5  -4 -14   46.80   27.70
  -5  -4 -14   35.10   58.89
  -5  -4 -14   62.09   29.90
  -6  -4 -14  295.07   95.59
  -6  -4 -14  243.48   94.49
  -6  -4 -14  282.87   58.09
  -6  -4 -14  249.28   57.99
  -7  -4 -14  229.68  110.09
  -8  -4 -14 1011.50  203.98
  -9  -4 -14   -2.70   68.39
  -9  -4 -14   47.40   75.99
   4  -5 -14  188.08   67.79
   4  -5 -14   74.89   61.69
  -4   5  14   13.20   88.39
   3  -5 -14   39.40   44.10
   3  -5 -14  -15.50   35.60
  -3   5  14   72.99   79.39
   2  -5 -14   21.20   58.69
   2  -5 -14   61.09   41.00
   2  -5 -14   41.60   41.70
  -2   5  14   44.10   59.09
   1  -5 -14  103.39   47.00
   1  -5 -14  110.99   46.60
   1  -5 -14   83.09   78.49
  -1   5  14   36.50   69.09
   0  -5 -14   -4.30   30.20
   0  -5 -14   -5.60   22.80
   0  -5 -14   69.29   52.59
   0   5  14  -10.20   48.50
  -1  -5 -14   -4.90   18.90
  -1  -5 -14   48.50   34.50
  -1  -5 -14   18.10   32.70
  -1  -5 -14   -2.70   24.60
  -1  -5 -14   -0.30   41.10
  -2  -5 -14 2041.80  266.17
  -2  -5 -14 2400.36  219.08
  -2  -5 -14 2535.55  216.78
  -2  -5 -14 2333.67  211.88
  -2  -5 -14 2308.47  188.18
  -3  -5 -14 3083.19  262.37
  -3  -5 -14 2940.91  224.48
  -3  -5 -14 3141.89  258.17
  -3  -5 -14 2911.71  290.77
  -3  -5 -14 3108.89  262.47
  -4  -5 -14   12.70   14.80
  -4  -5 -14   23.10   47.30
  -4  -5 -14  -15.30   22.10
  -4  -5 -14   -3.20   20.50
  -4  -5 -14    3.50   33.60
  -5  -5 -14  268.07  100.49
  -5  -5 -14  389.06   74.69
  -5  -5 -14  447.66   76.09
  -5  -5 -14  317.97   37.30
  -6  -5 -14  208.58   53.19
  -6  -5 -14  165.58   49.00
  -6  -5 -14  281.17  102.89
  -7  -5 -14  606.94  167.38
  -8  -5 -14   93.29   89.99
  -9  -5 -14  150.38  121.29
   3  -6 -14 1053.99  182.78
   3  -6 -14 1589.64  182.98
  -3   6  14 1457.25  251.67
   2  -6 -14 1224.68  143.49
   2  -6 -14  776.82  147.59
  -2   6  14 1371.16  235.88
   1  -6 -14   38.70   37.50
   1  -6 -14   62.39   39.00
   1  -6 -14   90.49   55.39
  -1   6  14   12.20   55.19
   0  -6 -14   82.39   62.69
   0  -6 -14   94.49   37.40
   0  -6 -14   62.09   44.40
   0   6  14  205.98   95.59
  -1  -6 -14   24.10   44.00
  -1  -6 -14   76.09   34.60
  -1  -6 -14   -7.00   25.80
  -1  -6 -14   69.69   38.20
   1   6  14   30.70   57.09
  -2  -6 -14  195.88   49.50
  -2  -6 -14  212.48   52.29
  -2  -6 -14  164.28   56.49
  -2  -6 -14  145.69   67.09
  -2  -6 -14   75.09   50.39
  -3  -6 -14   18.20   40.30
  -3  -6 -14   70.19   38.00
  -3  -6 -14   19.40   28.50
  -3  -6 -14   48.30   27.30
  -3  -6 -14   11.00   21.20
  -4  -6 -14  265.07   64.69
  -4  -6 -14  313.27   84.09
  -4  -6 -14  241.08   50.29
  -4  -6 -14  294.87   69.99
  -5  -6 -14  468.95   84.59
  -5  -6 -14  424.16   76.99
  -6  -6 -14 2425.86  182.08
  -6  -6 -14 2574.64  208.38
  -6  -6 -14 2180.78  207.48
  -7  -6 -14  164.88   52.69
  -7  -6 -14  210.18   92.79
  -7  -6 -14   90.79   39.80
  -7  -6 -14  158.08   37.00
  -8  -6 -14  125.69   98.89
  -9  -6 -14  216.08  105.49
   3  -7 -14  114.99   67.09
  -3   7  14   -3.90   89.99
   2  -7 -14  208.48   76.49
  -2   7  14  482.95  160.48
  -2   7  14  176.58  103.29
   1  -7 -14  112.89   58.19
   0  -7 -14 1167.18  183.78
   0  -7 -14  894.61  147.29
  -1  -7 -14 2528.15  240.08
  -1  -7 -14 2823.92  259.47
  -2  -7 -14  205.68   58.99
  -2  -7 -14  199.78   58.39
  -2  -7 -14  137.59   66.99
  -2  -7 -14  207.18   61.19
  -3  -7 -14   -1.60   31.20
  -3  -7 -14   45.00   31.90
  -3  -7 -14  -11.50   22.60
  -3  -7 -14   33.50   36.50
  -4  -7 -14   78.09   48.40
  -4  -7 -14  150.38   43.30
  -4  -7 -14  125.09   48.90
  -5  -7 -14  104.09   45.00
  -5  -7 -14   69.89   33.90
  -5  -7 -14   55.99   38.10
  -6  -7 -14   82.09   46.40
  -6  -7 -14   84.49   38.30
  -6  -7 -14   87.69   36.60
  -7  -7 -14  134.89   42.30
  -7  -7 -14  103.19   79.39
  -7  -7 -14  195.98   59.29
  -7  -7 -14   84.19   37.60
  -8  -7 -14   41.50   28.70
  -8  -7 -14  -43.20   67.89
  -9  -7 -14  927.81  216.78
   2  -8 -14   -3.70   45.60
   1  -8 -14  251.57   90.99
  -1   8  14  273.07  130.19
   0  -8 -14  137.59   70.49
   0  -8 -14   49.30   46.80
   0   8  14  124.49  105.79
  -1  -8 -14  126.19   54.39
   1   8  14  202.28  117.19
  -2  -8 -14  601.04  111.69
  -2  -8 -14  756.12  116.19
  -3  -8 -14  145.79   50.29
  -3  -8 -14  123.89   51.19
  -4  -8 -14 2406.66  212.58
  -4  -8 -14 2132.39  201.78
  -5  -8 -14  897.51  126.39
  -5  -8 -14  925.31  130.99
  -6  -8 -14   20.70   28.60
  -6  -8 -14   -8.60   26.70
  -7  -8 -14   13.30   29.80
  -7  -8 -14   33.90   40.90
  -8  -8 -14  151.68  102.09
  -8  -8 -14   49.50   37.40
  -9  -8 -14  173.08  117.29
   0  -9 -14  102.49   61.69
   0   9  14   94.69   95.99
  -1  -9 -14   62.99   48.50
   1   9  14 -100.59   90.79
  -2  -9 -14  262.37   84.59
   2   9  14  213.68  139.19
  -3  -9 -14  226.28   74.79
  -3  -9 -14  115.19   50.49
   3   9  14  255.47  136.49
  -4  -9 -14   99.39   49.00
  -4  -9 -14   11.80   33.50
   4   9  14   27.50   96.19
  -5  -9 -14  480.75   92.09
  -5  -9 -14  616.84  111.09
  -6  -9 -14  207.58   64.79
  -6  -9 -14  145.49   56.79
  -7  -9 -14  855.61  131.69
  -7  -9 -14  937.51  134.59
  -8  -9 -14 1322.17  163.28
  -8  -9 -14 1040.10  238.98
  -8  -9 -14 1288.27  161.48
  -1 -10 -14  123.29   78.89
  -2 -10 -14  542.95  119.59
   2  10  14  510.95  184.28
  -3 -10 -14  274.27   85.19
  -3 -10 -14  196.48   64.09
   3  10  14  121.09  112.29
  -4 -10 -14   47.30   44.30
  -4 -10 -14   39.30   38.60
   4  10  14   14.80   91.19
  -5 -10 -14   23.00   41.10
  -5 -10 -14   13.80   42.10
   5  10  14    4.50   84.39
  -6 -10 -14  136.49   62.69
  -6 -10 -14  213.58   71.19
  -7 -10 -14   15.70   40.90
   3   7 -15   34.30   52.69
  -3  -7  15    6.70   63.39
   2   7 -15  844.32  154.88
  -2  -7  15  730.33  164.18
  -2  -7  15  815.12  184.88
   1   7 -15 1226.68  193.58
  -1  -7  15  880.71  201.18
   0   7 -15   64.49   65.39
   0   7 -15   23.70   55.99
   0  -7  15   94.79   79.39
  -1   7 -15   26.20   61.79
  -1   7 -15   69.79   74.89
   1  -7  15   29.70   57.59
   5   6 -15  583.04  134.59
  -5  -6  15  446.86  135.79
   4   6 -15   42.50   51.19
  -4  -6  15    1.50   50.29
   3   6 -15 1723.03  218.28
  -3  -6  15 1383.66  229.68
   2   6 -15  471.65  113.99
  -2  -6  15  834.62  177.88
  -2  -6  15 1093.99  213.48
   1   6 -15   44.90   54.29
  -1  -6  15  133.29   81.29
   0   6 -15   29.40   60.79
   0   6 -15   52.49   55.69
   0  -6  15   92.79   71.59
  -1   6 -15  206.78   84.09
  -1   6 -15   97.99   76.59
   1  -6  15  119.69   74.89
  -2   6 -15 1048.80  195.18
  -2   6 -15 1244.98  180.18
   2  -6  15 1245.48  224.28
  -3   6 -15   65.09   75.39
  -3   6 -15   88.79   53.79
   3  -6  15   87.99   63.39
   5   5 -15  395.06  108.09
  -5  -5  15  425.96  137.29
   4   5 -15   -5.50   46.60
  -4  -5  15   -6.90   46.60
   3   5 -15  175.08   73.29
  -3  -5  15  145.99   70.89
   2   5 -15  287.77   81.39
  -2  -5  15  452.15  123.39
  -2  -5  15  728.23  160.68
   1   5 -15  372.06   92.19
  -1  -5  15  382.36  118.19
   0   5 -15 1407.56  196.68
   0   5 -15 1415.66  199.88
   0  -5  15 1274.77  226.08
  -1   5 -15 1828.72  232.98
  -1   5 -15 1904.71  252.27
   1  -5  15 2330.27  311.57
  -2   5 -15  151.28   72.99
  -2   5 -15  395.36  111.29
   2  -5  15  150.78   84.39
  -3   5 -15  226.88   96.39
  -3   5 -15  160.78   65.79
   3  -5  15   14.50   45.70
  -4   5 -15   -0.90   37.90
  -4   5 -15   13.00   74.59
   4  -5  15   -1.90   50.79
  -6  -4  15  326.67  121.39
   5   4 -15  994.10  174.98
  -5  -4  15  881.31  189.28
   4   4 -15  989.30  158.78
  -4  -4  15  942.31  183.48
   3   4 -15  138.79   66.69
  -3  -4  15  260.27   96.99
   2   4 -15  668.93  124.49
  -2  -4  15  997.80  188.98
  -2  -4  15  687.33  150.08
   1   4 -15   39.50   37.80
  -1  -4  15  -25.70   46.20
   0   4 -15  456.65  101.79
   0   4 -15  379.76   88.19
   0  -4  15  303.57  111.29
  -1   4 -15  -21.60   32.80
  -1   4 -15   10.40   46.30
   1  -4  15    0.70   56.09
  -2   4 -15  608.84  131.59
  -2   4 -15  643.34  113.19
   2  -4  15  387.96  117.99
  -3   4 -15   25.90   60.39
  -3   4 -15   84.89   45.70
   3  -4  15  128.79   73.89
  -4   4 -15 1553.94  224.98
  -4   4 -15 1319.27  174.78
   4  -4  15 1166.38  210.78
  -5   4 -15  637.34  112.79
  -5   4 -15  747.93  162.78
   6   3 -15   -7.90   45.70
  -6  -3  15  -52.09   67.69
  -6  -3  15    3.20   61.39
   5   3 -15   21.00   44.40
  -5  -3  15   -4.10   45.80
   4   3 -15  710.23  138.59
  -4  -3  15 1185.18  212.18
   3   3 -15 1221.48  178.98
  -3  -3  15 1716.93  247.08
   2   3 -15  231.88   73.69
  -2  -3  15  235.58   89.59
   1   3 -15 1603.54  186.38
  -1  -3  15 1465.85  236.78
   0   3 -15  346.87   76.19
   0   3 -15  292.07   73.19
   0  -3  15  173.18   87.69
  -1   3 -15  349.57   88.19
  -1   3 -15  292.47   74.19
   1  -3  15  643.74  145.89
  -2   3 -15  342.67   95.69
  -2   3 -15  292.97   69.99
   2  -3  15  348.67  110.59
  -3   3 -15  359.96  104.59
  -3   3 -15  406.46   86.49
  -4   3 -15  216.78   65.09
  -4   3 -15  292.07   94.29
  -5   3 -15  237.08   92.49
  -5   3 -15  428.06   84.19
  -6   3 -15   30.10   67.59
  -6   3 -15  121.19   51.89
   6   2 -15  102.99   70.59
  -6  -2  15  173.98  101.99
   5   2 -15   -1.10   42.60
  -5  -2  15  -32.60   45.20
  -5  -2  15  -63.99   45.30
   4   2 -15  170.48   70.19
  -4  -2  15  436.46  121.29
   3   2 -15  182.08   63.69
  -3  -2  15  124.79   79.39
   2   2 -15   50.39   53.69
   2   2 -15   29.80   41.90
  -2  -2  15   18.80   53.69
   1   2 -15  370.26   94.99
   1   2 -15  395.76   82.49
  -1  -2  15  186.98   91.59
  -1  -2  15  474.35  137.79
   0   2 -15 2095.49  258.27
   0   2 -15 2207.48  198.28
   0   2 -15 2395.46  197.58
   0  -2  15 1956.30  276.87
  -1   2 -15   77.29   53.59
  -1   2 -15  247.68   65.69
  -1   2 -15   87.19   38.00
  -1   2 -15  124.79   72.69
   1  -2  15  156.58   79.29
  -2   2 -15 1176.68  219.18
  -2   2 -15 1237.78  165.68
  -2   2 -15 1106.09  141.19
  -3   2 -15  571.84   93.79
  -3   2 -15  702.33  132.89
  -4   2 -15  452.45   83.49
  -4   2 -15  479.95  117.99
  -5   2 -15  497.15  121.99
  -5   2 -15  474.95   89.29
  -6   2 -15  -31.00   42.90
  -6   2 -15   29.10   33.20
  -7   2 -15  395.86  128.29
  -7   2 -15  542.35   94.39
   7  -2  15  312.07  124.09
   6   1 -15 1381.36  218.38
   6   1 -15 1207.18  194.78
  -6  -1  15 1117.19  244.88
   5   1 -15 2758.12  321.57
   5   1 -15 3236.28  353.16
  -5  -1  15 3032.70  406.76
   4   1 -15   27.40   40.10
   4   1 -15  196.78   80.99
  -4  -1  15  132.59   84.59
   3   1 -15  363.76   89.99
   3   1 -15  399.56  106.79
  -3  -1  15  393.56  118.19
   2   1 -15   78.99   41.20
   2   1 -15   -4.50   35.80
  -2  -1  15    7.30   46.60
   1   1 -15  266.77   85.89
   1   1 -15  123.29   47.00
  -1  -1  15  236.38   83.69
   0   1 -15  493.45  147.69
   0   1 -15  654.93   96.19
   0   1 -15  436.16  108.19
  -1   1 -15   50.29   28.80
  -1   1 -15   39.20   29.10
  -1   1 -15   96.89   69.79
  -1   1 -15   67.39   49.10
  -2   1 -15  -10.30   28.60
  -2   1 -15   24.50   57.09
  -2   1 -15   49.90   29.80
  -2   1 -15   70.19   46.90
  -3   1 -15 1515.15  142.39
  -3   1 -15 1764.42  210.68
  -4   1 -15  856.71  150.18
  -4   1 -15  996.00  114.69
  -5   1 -15  417.16  108.99
  -5   1 -15  291.37   61.79
  -6   1 -15  519.35   82.79
  -6   1 -15  598.84  138.39
  -7   1 -15  195.38   90.79
  -7   1 -15  202.98   55.89
   6   0 -15   47.30   59.09
   6   0 -15  -23.30   49.30
  -6   0  15  144.49  107.59
   5   0 -15  -17.50   43.20
   5   0 -15  -49.80   40.30
  -5   0  15   40.50   78.39
   4   0 -15  210.18   72.09
   4   0 -15   52.49   65.29
  -4   0  15  307.67  120.39
   3   0 -15  131.29   70.09
   3   0 -15   81.39   48.60
  -3   0  15  259.87   99.89
   2   0 -15 2976.10  259.97
   2   0 -15 2841.52  289.37
  -2   0  15 3379.56  319.57
   1   0 -15 1628.14  157.68
   1   0 -15 1589.74  265.17
   1   0 -15 2024.80  233.68
  -1   0  15 1563.64  232.28
   0   0 -15  117.79   83.89
   0   0 -15  237.18   52.09
   0   0 -15  130.79   58.99
  -1   0 -15  312.87  117.39
  -1   0 -15  326.67   55.69
  -1   0 -15  154.38   48.00
  -1   0 -15  233.68   81.79
  -2   0 -15   67.99   46.70
  -2   0 -15   39.70   64.09
  -2   0 -15   97.79   46.10
  -2   0 -15   44.20   23.90
  -2   0 -15   44.20   38.30
  -3   0 -15  788.82  131.49
  -3   0 -15  974.70   88.29
  -3   0 -15  893.41  126.99
  -3   0 -15  726.53  174.28
  -4   0 -15  101.19   56.19
  -4   0 -15   55.59   50.09
  -4   0 -15   96.99   29.50
  -5   0 -15  145.89   65.59
  -5   0 -15  140.69   67.59
  -5   0 -15  194.58   42.20
  -6   0 -15  265.17   53.89
  -6   0 -15  222.58   86.59
  -6   0 -15  314.17   91.99
  -7   0 -15 1152.98  198.78
  -7   0 -15  919.61  175.48
  -7   0 -15 1323.17  135.89
  -8   0 -15   22.90   32.60
  -8   0 -15  -43.30   58.49
  -8   0 -15  -39.60   48.50
   6  -1 -15  120.99   74.79
   6  -1 -15  270.47   98.49
  -6   1  15  190.78  121.49
   5  -1 -15    4.90   60.19
   5  -1 -15   29.50   45.00
  -5   1  15   16.30   68.99
   4  -1 -15  215.78   78.39
   4  -1 -15  115.39   69.29
  -4   1  15  167.88   94.99
   3  -1 -15  112.19   55.39
   3  -1 -15  149.88  112.29
   3  -1 -15  203.88   74.79
  -3   1  15  143.09   88.89
   2  -1 -15  -19.80   54.69
   2  -1 -15    8.70   46.20
   2  -1 -15   18.20   33.60
  -2   1  15   39.90   58.09
   1  -1 -15  201.78   55.59
   1  -1 -15  262.87  112.99
   1  -1 -15  347.47   95.19
  -1   1  15   99.99   75.49
   0  -1 -15  466.85  136.69
   0  -1 -15  259.77   54.99
   0  -1 -15  117.19   61.99
  -1  -1 -15 2904.31  358.66
  -1  -1 -15 2699.13  211.78
  -1  -1 -15 2586.84  249.48
  -1  -1 -15 2343.67  193.58
  -2  -1 -15 2984.50  218.28
  -2  -1 -15 3089.09  284.27
  -2  -1 -15 3019.60  252.67
  -2  -1 -15 3398.76  393.96
  -3  -1 -15    1.20   49.40
  -3  -1 -15  -41.30   22.70
  -3  -1 -15   -4.50   24.60
  -3  -1 -15   15.40   12.80
  -4  -1 -15  204.58   98.89
  -4  -1 -15  151.98   60.09
  -4  -1 -15  109.19   50.79
  -4  -1 -15  152.98   25.90
  -4  -1 -15   47.50   35.00
  -5  -1 -15   -1.00   14.70
  -5  -1 -15   14.40   41.40
  -5  -1 -15   12.50   43.00
  -6  -1 -15  642.44  138.89
  -6  -1 -15  740.73  147.29
  -6  -1 -15  665.43   76.89
  -7  -1 -15  234.48   47.30
  -7  -1 -15  172.28   83.79
  -7  -1 -15  275.47  106.19
  -8  -1 -15   77.49   90.29
  -8  -1 -15    5.10   60.09
   5  -2 -15   51.59   56.29
   5  -2 -15   20.00   56.39
  -5   2  15   77.79   99.09
   4  -2 -15 1326.47  191.08
   4  -2 -15 1542.25  210.78
  -4   2  15 1407.76  261.07
   3  -2 -15 1293.37  183.38
   3  -2 -15 1389.26  199.98
  -3   2  15 1341.87  245.28
   2  -2 -15  118.79   64.49
   2  -2 -15   37.10   37.00
   2  -2 -15   31.70   47.20
  -2   2  15  -17.60   53.19
   1  -2 -15   28.20   48.10
   1  -2 -15  -19.30   56.59
   1  -2 -15   15.50   27.20
   0  -2 -15  306.07   62.89
   0  -2 -15  333.77   94.19
   0  -2 -15  560.94  162.68
  -1  -2 -15   93.39   35.80
  -1  -2 -15   90.69   56.09
  -1  -2 -15   74.09   28.20
  -1  -2 -15   76.99   69.29
  -2  -2 -15   17.30   14.20
  -2  -2 -15   47.40   34.20
  -2  -2 -15  -19.80   28.10
  -2  -2 -15   40.60   58.39
  -3  -2 -15  304.27   82.09
  -3  -2 -15  308.27   75.99
  -3  -2 -15  394.16   77.89
  -3  -2 -15  335.87  122.79
  -4  -2 -15  430.36   99.99
  -4  -2 -15  440.26   99.09
  -4  -2 -15  436.16  128.19
  -4  -2 -15  457.55   83.89
  -5  -2 -15 2449.16  351.36
  -5  -2 -15 3519.25  271.27
  -5  -2 -15 4014.90  326.37
  -5  -2 -15 3245.38  305.67
  -6  -2 -15  366.86  105.59
  -6  -2 -15  496.65  119.29
  -7  -2 -15   79.59   67.59
  -7  -2 -15  -48.60   46.20
  -8  -2 -15   57.99   76.59
  -8  -2 -15  180.78   82.39
  -9  -2 -15   63.19   93.79
   5  -3 -15  133.59   78.09
   5  -3 -15  349.77  100.89
  -5   3  15   80.59   99.49
   4  -3 -15   98.19   58.29
   4  -3 -15  168.78   72.69
  -4   3  15  132.49  111.79
   3  -3 -15  896.81  146.09
   3  -3 -15  946.61  150.18
  -3   3  15  641.04  180.78
   2  -3 -15  775.52  137.69
   2  -3 -15  857.81  132.99
   2  -3 -15  997.70  203.98
  -2   3  15  866.91  190.08
   1  -3 -15  510.25  112.59
   1  -3 -15  702.43  106.09
   1  -3 -15  425.06  135.89
   0  -3 -15 2565.54  251.47
   0  -3 -15 2602.94  214.28
   0  -3 -15 2514.45  341.87
  -1  -3 -15  188.58   94.79
  -1  -3 -15  293.17   81.49
  -1  -3 -15  172.78   40.70
  -2  -3 -15   22.50   38.20
  -2  -3 -15    8.50   31.90
  -2  -3 -15   -6.80   12.50
  -2  -3 -15   43.70   67.49
  -3  -3 -15  106.49   57.19
  -3  -3 -15  310.17  104.89
  -3  -3 -15   81.39   40.80
  -4  -3 -15   49.70   32.20
  -4  -3 -15   -3.50   51.79
  -5  -3 -15   31.80   62.79
  -5  -3 -15   70.19   37.00
  -5  -3 -15   64.39   37.70
  -5  -3 -15   43.40   50.99
  -6  -3 -15  431.96   72.49
  -6  -3 -15  213.58   86.69
  -6  -3 -15  210.68   78.49
  -6  -3 -15  498.45  128.39
  -7  -3 -15   17.90   60.39
  -7  -3 -15    1.20   48.40
  -8  -3 -15 1368.16  228.88
  -8  -3 -15 1600.04  257.67
  -9  -3 -15  788.32  167.68
  -9  -3 -15 1067.09  225.68
   4  -4 -15   58.89   58.19
   4  -4 -15  132.99   65.59
  -4   4  15  173.38  111.29
   3  -4 -15   20.40   37.30
   3  -4 -15   10.10   39.70
  -3   4  15   29.20   80.89
   2  -4 -15  477.55  100.89
   2  -4 -15  285.27   77.79
  -2   4  15  211.98  102.29
   1  -4 -15  150.48   54.69
   1  -4 -15  -51.09   47.20
   1  -4 -15   43.90   44.70
  -1   4  15  106.99   92.29
   0  -4 -15  164.48   50.99
   0  -4 -15  190.88   62.99
   0  -4 -15  330.27  118.79
  -1  -4 -15 1615.64  144.09
  -1  -4 -15 1965.20  210.18
  -1  -4 -15 1292.07  179.38
  -1  -4 -15 1612.04  245.78
  -2  -4 -15   32.50   19.00
  -2  -4 -15   59.59   59.59
  -2  -4 -15   11.70   31.30
  -2  -4 -15    9.70   31.40
  -3  -4 -15 2593.84  184.48
  -3  -4 -15 2512.75  235.38
  -3  -4 -15 2696.83  248.38
  -3  -4 -15 3008.20  351.36
  -4  -4 -15  924.41  135.69
  -4  -4 -15 1206.88  149.79
  -4  -4 -15 1597.84  231.38
  -4  -4 -15 1407.86  180.68
  -5  -4 -15   66.29   33.80
  -5  -4 -15   -8.10   25.40
  -5  -4 -15   82.39   62.39
  -6  -4 -15   56.19   61.89
  -6  -4 -15   97.09   42.60
  -6  -4 -15  274.67  107.59
  -6  -4 -15  122.19   48.00
  -7  -4 -15   41.80   65.39
  -8  -4 -15  116.69   83.89
  -8  -4 -15   40.10   70.59
  -9  -4 -15  110.29   82.69
  -9  -4 -15  -41.20   79.89
   4  -5 -15 1148.59  194.88
   4  -5 -15 1139.89  162.78
  -4   5  15 1055.19  233.18
   3  -5 -15  -33.80   36.20
   3  -5 -15   47.20   41.90
  -3   5  15   13.50   80.09
   2  -5 -15 1059.59  146.49
   2  -5 -15  731.13  134.89
  -2   5  15 1146.99  226.38
   1  -5 -15  -13.10   31.90
   1  -5 -15   28.30   35.00
   1  -5 -15  -22.80   59.69
  -1   5  15  -40.90   50.59
   0  -5 -15   14.00   34.10
   0  -5 -15   78.79   42.40
   0  -5 -15   23.20   55.39
   0   5  15   83.79   74.19
  -1  -5 -15  247.08   89.09
  -1  -5 -15  167.48   47.70
  -1  -5 -15  215.78   62.59
  -1  -5 -15  103.99   56.39
  -1  -5 -15   72.59   48.10
  -2  -5 -15  208.28   61.49
  -2  -5 -15  132.29   38.40
  -2  -5 -15   32.90   38.60
  -2  -5 -15   43.10   59.69
  -2  -5 -15  167.98   56.09
  -3  -5 -15   24.60   63.69
  -3  -5 -15  144.89   57.69
  -3  -5 -15  119.09   31.00
  -3  -5 -15  138.69   50.09
  -3  -5 -15   62.79   45.20
  -4  -5 -15 1344.17  168.98
  -4  -5 -15 1838.92  203.28
  -4  -5 -15 1538.65  226.48
  -4  -5 -15 1168.78  156.48
  -5  -5 -15  517.05   90.19
  -5  -5 -15  535.55  100.99
  -5  -5 -15  291.17  105.89
  -5  -5 -15  281.77   71.39
  -6  -5 -15  755.92  114.89
  -6  -5 -15 1074.49  188.38
  -6  -5 -15 1011.90  123.09
  -7  -5 -15 1482.45  243.88
  -8  -5 -15  197.78  110.39
  -9  -5 -15   22.60   87.39
   3  -6 -15  -47.20   36.90
   3  -6 -15   15.30   43.60
  -3   6  15  -28.50   63.89
   2  -6 -15  181.88   72.09
   2  -6 -15  286.87   74.29
  -2   6  15  308.67  125.39
   1  -6 -15 1299.87  221.28
   1  -6 -15 1957.10  171.68
   1  -6 -15 1393.06  191.78
  -1   6  15 1726.53  275.47
   0  -6 -15  217.78   63.69
   0  -6 -15  469.45   80.39
   0  -6 -15  190.28   89.99
   0   6  15  287.37  117.89
  -1  -6 -15  927.11  164.98
  -1  -6 -15  982.10  133.09
  -1  -6 -15  841.22  116.89
  -1  -6 -15  852.21  128.99
  -2  -6 -15  384.06   67.99
  -2  -6 -15  227.98   56.29
  -2  -6 -15  266.77   72.19
  -2  -6 -15  383.46   83.39
  -2  -6 -15  190.78   84.59
  -3  -6 -15   55.99   50.29
  -3  -6 -15   25.20   24.10
  -3  -6 -15   74.99   42.30
  -3  -6 -15   14.00   36.40
  -4  -6 -15  134.79   44.50
  -4  -6 -15   94.39   70.69
  -4  -6 -15  134.59   49.80
  -4  -6 -15  103.89   32.80
  -5  -6 -15   82.59   46.40
  -5  -6 -15   56.39   34.90
  -6  -6 -15  -17.60   25.20
  -6  -6 -15   17.40   31.10
  -7  -6 -15  365.26   76.59
  -7  -6 -15  543.45  151.08
  -7  -6 -15  566.64   94.59
  -8  -6 -15 1054.99  224.48
  -9  -6 -15   96.89   94.99
   2  -7 -15  287.37   88.69
  -2   7  15  448.66  142.09
   1  -7 -15  -11.50   32.80
   0  -7 -15   56.79   45.00
   0  -7 -15   84.69   69.29
  -1  -7 -15   -1.60   44.10
  -1  -7 -15   61.79   40.60
  -2  -7 -15 1363.16  162.38
  -2  -7 -15 1278.27  183.48
  -2  -7 -15 1254.97  168.58
  -3  -7 -15 1887.11  167.98
  -3  -7 -15 1678.43  198.68
  -4  -7 -15  147.79   39.30
  -4  -7 -15   60.19   49.30
  -4  -7 -15  140.39   57.29
  -5  -7 -15  889.01  133.89
  -5  -7 -15  851.21  127.49
  -5  -7 -15 1003.80  110.99
  -6  -7 -15    4.00   32.40
  -6  -7 -15   16.80   29.10
  -7  -7 -15  -16.80   53.59
  -7  -7 -15   34.40   41.50
  -7  -7 -15  -16.10   27.60
  -8  -7 -15  115.89   93.69
  -9  -7 -15   57.99   93.79
   1  -8 -15  122.29   74.29
  -1   8  15   81.09  115.99
   0  -8 -15   30.50   43.50
  -1  -8 -15  506.85  105.39
  -2  -8 -15  195.38   67.79
  -2  -8 -15  163.48   60.79
  -3  -8 -15   43.60   36.90
  -3  -8 -15   48.10   35.20
  -4  -8 -15   49.00   33.50
  -4  -8 -15   84.79   42.80
  -5  -8 -15  800.62  127.49
  -5  -8 -15  870.91  118.99
  -6  -8 -15 2138.69  201.18
  -7  -8 -15   75.39   38.10
  -8  -8 -15  602.84  172.28
   0  -9 -15  508.45  115.19
   0   9  15  400.96  157.68
  -1  -9 -15 1102.29  174.98
   1   9  15  942.61  234.58
  -2  -9 -15    0.00   33.60
  -2  -9 -15  -29.10   32.10
   2   9  15   38.40   95.59
  -3  -9 -15  126.29   55.59
  -3  -9 -15  351.96   86.89
  -4  -9 -15  324.87   79.29
  -4  -9 -15  384.46   84.89
  -5  -9 -15  119.29   52.79
  -5  -9 -15  269.67   68.69
  -6  -9 -15   20.30   34.00
  -6  -9 -15    8.80   30.50
  -7  -9 -15   18.00   39.10
  -7  -9 -15  -29.30   25.30
  -8  -9 -15  -14.20   87.49
  -2 -10 -15  120.29   64.99
   2  10  15  145.19  123.09
  -3 -10 -15   93.89   54.59
  -3 -10 -15  135.39   65.09
   3  10  15  193.78  130.19
  -4 -10 -15 1360.16  183.58
  -4 -10 -15 1626.54  195.58
   4  10  15 1170.88  278.47
  -5 -10 -15  542.75  103.19
  -5 -10 -15  275.67   76.39
   5  10  15   81.79  123.29
  -6 -10 -15  274.87   75.19
  -6 -10 -15  146.79   65.69
   4   6 -16   18.30   44.90
  -4  -6  16   39.40   62.99
   3   6 -16  123.19   61.19
  -3  -6  16   76.09   60.69
   2   6 -16  325.67   88.69
  -2  -6  16  451.95  137.19
  -2  -6  16  134.29   73.59
   1   6 -16 1320.37  191.98
  -1  -6  16 1791.82  266.97
   0   6 -16  341.97   95.59
   0  -6  16  501.85  150.98
  -1   6 -16   59.49   56.29
  -1   6 -16  303.87  106.19
   1  -6  16  160.98   98.89
  -2   6 -16  220.78  108.49
  -2   6 -16  547.25  120.89
   2  -6  16  435.76  125.89
   5   5 -16  339.87   97.99
   4   5 -16   94.39   60.19
  -4  -5  16   44.90   76.49
   3   5 -16   16.50   45.80
  -3  -5  16  -14.30   53.69
   2   5 -16  109.19   57.79
  -2  -5  16   50.19   53.59
  -2  -5  16  109.89   85.09
   1   5 -16  419.76  104.49
  -1  -5  16  188.48   97.29
   0   5 -16  130.69   64.49
   0  -5  16   24.90   67.29
  -1   5 -16  -43.70   51.09
  -1   5 -16    5.90   42.50
   1  -5  16  -42.70   43.30
  -2   5 -16 1070.39  172.08
  -2   5 -16 1565.64  217.68
   2  -5  16 1123.69  203.88
  -3   5 -16 1189.08  163.48
  -3   5 -16  996.20  187.58
   3  -5  16  760.52  169.08
   5   4 -16  266.57   91.09
  -5  -4  16  582.44  150.28
   4   4 -16   28.40   52.09
  -4  -4  16   51.29   72.39
   3   4 -16 2769.32  296.37
  -3  -4  16 2564.04  326.27
   2   4 -16 1128.49  161.58
  -2  -4  16 1297.27  214.88
   1   4 -16   43.60   39.10
  -1  -4  16   27.60   63.19
   0   4 -16   23.80   32.60
   0  -4  16  -24.40   47.30
  -1   4 -16   53.59   48.20
  -1   4 -16   52.49   56.69
   1  -4  16  -17.70   48.10
  -2   4 -16  830.02  150.58
  -2   4 -16  401.46   98.19
   2  -4  16  707.93  161.88
  -3   4 -16   22.50   40.80
  -3   4 -16  -30.20   49.30
   3  -4  16   54.59   61.59
  -4   4 -16   92.49   52.09
  -4   4 -16   27.00   70.29
   4  -4  16  177.28   95.69
   5   3 -16  128.09   68.89
  -5  -3  16   97.09   74.79
   4   3 -16   80.19   50.89
  -4  -3  16   40.30   64.89
   3   3 -16   29.50   44.60
  -3  -3  16  -46.90   37.60
   2   3 -16  272.47   75.19
  -2  -3  16  520.55  126.69
   1   3 -16  226.38   70.79
  -1  -3  16  581.04  144.89
   0   3 -16 1080.49  144.89
   0  -3  16 1657.53  248.88
  -1   3 -16 2202.38  207.98
  -1   3 -16 2261.87  218.88
   1  -3  16 2234.38  309.27
  -2   3 -16   98.89   57.29
  -2   3 -16   -4.80   30.70
   2  -3  16   75.79   80.59
  -3   3 -16   85.99   59.39
  -3   3 -16  -30.60   26.30
  -4   3 -16    3.80   29.90
  -4   3 -16   79.69   65.09
  -5   3 -16  363.16  106.19
  -5   3 -16  493.75   94.99
   5   2 -16  884.61  159.48
  -5  -2  16  960.90  234.68
  -5  -2  16 1352.66  237.78
   4   2 -16 1547.15  208.98
  -4  -2  16 1450.35  243.48
   3   2 -16   12.30   48.30
   3   2 -16  114.99   55.39
  -3  -2  16    6.00   44.60
   2   2 -16   -8.70   52.79
   2   2 -16   84.79   49.70
  -2  -2  16   99.99   63.89
   1   2 -16  139.59   74.99
   1   2 -16  255.77   66.89
  -1  -2  16  116.99   80.69
   0   2 -16   10.10   27.30
   0   2 -16   10.50   54.49
   0  -2  16  -31.20   46.50
  -1   2 -16  205.08  101.69
  -1   2 -16   68.79   43.90
  -1   2 -16  104.49   68.49
  -1   2 -16  134.79   51.69
   1  -2  16   29.10   54.49
  -2   2 -16 1165.68  226.68
  -2   2 -16 1286.77  199.98
  -2   2 -16 1119.69  161.68
  -2   2 -16  826.72  121.19
  -3   2 -16  189.28   76.69
  -3   2 -16  156.78   49.30
  -4   2 -16 2651.33  228.88
  -4   2 -16 2906.11  278.17
  -5   2 -16  458.55   85.99
  -5   2 -16  484.65  119.39
  -6   2 -16    6.20   35.30
  -6   2 -16  -47.20   52.29
   5   1 -16    5.30   67.59
   5   1 -16   81.49   60.39
  -5  -1  16   96.69   95.09
   4   1 -16 1168.38  196.38
   4   1 -16 1039.50  164.38
  -4  -1  16 1363.06  230.88
   3   1 -16 1367.96  207.18
   3   1 -16 1780.22  207.78
  -3  -1  16 1275.97  233.88
   2   1 -16  263.87   86.49
   2   1 -16  288.67   76.99
  -2  -1  16  328.77  107.79
   1   1 -16 1919.01  183.58
   1   1 -16 1934.01  242.78
  -1  -1  16 2503.95  299.47
   0   1 -16  181.28   98.69
   0   1 -16  174.58   76.89
   0   1 -16  169.58   52.39
  -1   1 -16  -20.40   58.99
  -1   1 -16  122.29   68.29
  -1   1 -16   82.79   37.00
  -1   1 -16   59.99   38.20
  -2   1 -16  325.67   65.79
  -2   1 -16  392.16   88.79
  -2   1 -16  367.86  127.19
  -2   1 -16  381.46  102.69
  -3   1 -16    2.00   33.40
  -3   1 -16   24.50   28.70
  -3   1 -16   14.40   59.09
  -4   1 -16   10.70   24.70
  -4   1 -16   62.29   49.99
  -5   1 -16  323.47  100.89
  -5   1 -16  528.25   80.39
  -6   1 -16   50.99   33.20
  -6   1 -16  -11.00   52.49
  -7   1 -16 1048.80  130.09
  -7   1 -16  884.71  171.18
   5   0 -16  216.28   90.09
   5   0 -16  116.39   70.89
  -5   0  16   79.39   88.99
   4   0 -16    1.00   34.40
   4   0 -16  -10.50   53.99
  -4   0  16   24.40   70.79
   3   0 -16  373.66  112.39
   3   0 -16  369.46   92.99
  -3   0  16  366.86  123.79
   2   0 -16  180.98   60.39
   2   0 -16    3.20   48.00
  -2   0  16   28.20   52.49
   1   0 -16  555.04   96.29
   1   0 -16  729.33  180.48
   1   0 -16  590.34  122.79
  -1   0  16  693.33  152.78
   0   0 -16 3374.06  266.67
   0   0 -16 3660.43  319.97
   0   0 -16 3137.29  413.06
  -1   0 -16   22.50   42.30
  -1   0 -16    4.50   63.59
  -1   0 -16   35.00   23.40
  -2   0 -16 1406.46  123.39
  -2   0 -16 1566.94  181.08
  -2   0 -16 1761.42  223.38
  -2   0 -16 1244.78  236.68
  -3   0 -16  839.82  179.68
  -3   0 -16  859.51   90.89
  -3   0 -16  790.92  130.89
  -4   0 -16   18.10   45.50
  -4   0 -16   24.40   25.70
  -5   0 -16  201.58   43.80
  -5   0 -16  238.88   77.69
  -6   0 -16   30.00   51.59
  -7   0 -16  175.48   82.89
   5  -1 -16 1475.45  216.18
   5  -1 -16 1912.51  249.97
  -5   1  16 1294.17  264.77
   4  -1 -16   69.79   66.19
   4  -1 -16  -53.19   30.30
  -4   1  16   69.79   76.09
   3  -1 -16  718.53  127.59
   3  -1 -16  622.04  136.39
  -3   1  16  362.86  128.39
   2  -1 -16  -69.49   57.59
   2  -1 -16  -12.80   24.90
   2  -1 -16   20.90   40.30
  -2   1  16   -2.60   47.50
   1  -1 -16  126.79   47.20
   1  -1 -16  315.67   96.09
   1  -1 -16   68.09   78.59
  -1   1  16  165.38   83.09
   0  -1 -16  236.98   74.89
   0  -1 -16  228.48   52.09
   0  -1 -16  156.38   94.89
  -1  -1 -16  -13.60   27.40
  -1  -1 -16   26.80   22.70
  -1  -1 -16  -12.40   52.89
  -2  -1 -16  174.78   96.99
  -2  -1 -16  114.79   59.29
  -2  -1 -16   98.39   26.40
  -2  -1 -16   97.29   43.00
  -3  -1 -16 2048.00  249.18
  -3  -1 -16 1909.51  186.68
  -3  -1 -16 1972.80  296.87
  -3  -1 -16 2068.79  192.48
  -3  -1 -16 1852.01  136.69
  -4  -1 -16  798.42  120.39
  -4  -1 -16 1153.98  160.18
  -4  -1 -16 1669.43  190.28
  -4  -1 -16  963.30  198.28
  -5  -1 -16  452.75  111.59
  -5  -1 -16  384.56   97.59
  -6  -1 -16  531.05  121.79
  -6  -1 -16  949.51  157.88
  -7  -1 -16  -19.80   49.60
  -7  -1 -16   21.10   62.19
  -8  -1 -16  -14.80   69.89
  -8  -1 -16  200.68   82.59
   5  -2 -16  -98.99   45.60
   5  -2 -16   81.39   63.49
  -5   2  16  143.59  110.49
   4  -2 -16   31.30   52.99
   4  -2 -16   21.40   44.10
  -4   2  16  -27.10   53.09
   3  -2 -16  246.98   96.89
   3  -2 -16  158.38   64.29
  -3   2  16  101.59   92.29
   2  -2 -16 2871.61  318.77
   2  -2 -16 2786.72  250.17
   1  -2 -16 1588.64  173.58
   1  -2 -16 1565.44  210.08
   1  -2 -16  906.61  222.28
   0  -2 -16  263.57   57.09
   0  -2 -16  348.37   98.39
   0  -2 -16  202.88  106.49
  -1  -2 -16   90.49   28.40
  -1  -2 -16   44.30   48.40
  -1  -2 -16  149.99   88.39
  -2  -2 -16  245.18  103.49
  -2  -2 -16  108.59   67.59
  -2  -2 -16  192.68   54.19
  -2  -2 -16  175.48   31.60
  -3  -2 -16  146.59   54.09
  -3  -2 -16   -4.70   70.39
  -3  -2 -16  177.68   55.09
  -3  -2 -16  129.39   70.89
  -4  -2 -16  241.38   67.19
  -4  -2 -16  209.28   61.19
  -4  -2 -16   69.99   53.89
  -4  -2 -16  146.09   87.19
  -5  -2 -16   61.79   37.60
  -5  -2 -16   -0.70   37.40
  -5  -2 -16  -15.80   38.20
  -5  -2 -16   -4.50   45.40
  -6  -2 -16 1094.39  185.88
  -6  -2 -16  469.75  117.09
  -7  -2 -16 1506.95  236.88
  -7  -2 -16 1243.08  191.28
  -8  -2 -16  -66.99   47.10
  -8  -2 -16  -14.90   64.99
   4  -3 -16  168.08   77.99
   4  -3 -16  288.47   93.59
  -4   3  16  132.19  108.69
   3  -3 -16  713.43  141.79
   3  -3 -16  568.04  116.19
  -3   3  16  524.75  163.38
   2  -3 -16  233.38   84.49
   2  -3 -16  -14.90   28.90
  -2   3  16   35.90   80.29
   1  -3 -16  -10.60   67.19
   1  -3 -16   26.00   47.70
   1  -3 -16   78.59   37.80
   0  -3 -16  -25.30   37.70
   0  -3 -16 -108.89   58.79
   0  -3 -16   28.40   26.40
  -1  -3 -16 1487.95  197.58
  -1  -3 -16 1872.91  152.78
  -1  -3 -16 1817.72  278.07
  -1  -3 -16 2028.70  235.78
  -2  -3 -16 1861.01  178.98
  -2  -3 -16 1849.61  214.68
  -2  -3 -16 2017.90  150.78
  -2  -3 -16 2035.80  306.37
  -2  -3 -16 2220.28  247.58
  -3  -3 -16  -50.69   31.80
  -3  -3 -16   53.19   63.39
  -3  -3 -16  -29.20   23.90
  -3  -3 -16    1.40   29.30
  -4  -3 -16  372.46   96.89
  -4  -3 -16  508.75  136.79
  -4  -3 -16  308.97   82.29
  -4  -3 -16  212.18   63.09
  -5  -3 -16   60.49   50.89
  -5  -3 -16   20.80   35.00
  -5  -3 -16   93.59   62.09
  -5  -3 -16   -7.10   26.10
  -5  -3 -16   -8.10   57.89
  -6  -3 -16    6.40   47.50
  -6  -3 -16  -11.90   18.20
  -6  -3 -16   49.20   64.49
  -6  -3 -16   26.90   55.39
  -7  -3 -16  214.28   85.89
  -7  -3 -16   67.99   71.39
  -8  -3 -16   28.70   67.49
  -8  -3 -16    4.80   66.79
   4  -4 -16 1184.48  182.68
   4  -4 -16  717.23  142.09
  -4   4  16  571.54  175.08
   3  -4 -16  910.31  152.48
   3  -4 -16  646.34  129.89
  -3   4  16  680.03  181.98
   2  -4 -16  153.38   68.29
   2  -4 -16  189.98   63.19
  -2   4  16  181.98  107.99
   1  -4 -16  -39.50   57.29
   1  -4 -16    6.70   28.50
   1  -4 -16   12.70   39.60
  -1   4  16  -57.09   55.19
   0  -4 -16  340.27  125.09
   0  -4 -16  395.86   77.39
   0  -4 -16  506.55  117.19
   0  -4 -16  498.25  103.69
  -1  -4 -16  216.78   67.09
  -1  -4 -16  296.07   86.59
  -1  -4 -16  242.38   53.39
  -1  -4 -16  174.78  100.29
  -2  -4 -16   60.49   24.10
  -2  -4 -16   54.99   43.30
  -2  -4 -16  101.59   52.19
  -2  -4 -16   52.79   75.19
  -3  -4 -16  126.89   56.79
  -3  -4 -16  217.38   99.49
  -3  -4 -16  136.49   49.90
  -4  -4 -16  221.58   64.89
  -4  -4 -16  202.58   97.49
  -4  -4 -16  536.55   93.79
  -4  -4 -16  412.46   93.49
  -5  -4 -16 2843.12  247.38
  -5  -4 -16 2948.80  250.17
  -6  -4 -16  235.28   59.59
  -6  -4 -16  268.27  107.09
  -6  -4 -16  264.67   98.59
  -6  -4 -16  252.07   68.69
  -7  -4 -16  296.37  105.49
  -7  -4 -16  277.97  104.39
  -8  -4 -16  -40.60   61.29
  -8  -4 -16  -22.40   61.29
  -9  -4 -16  -27.70   67.29
   3  -5 -16  358.96   89.89
   3  -5 -16  258.97   88.19
  -3   5  16  150.38  105.59
   2  -5 -16  528.65  105.59
   2  -5 -16  326.97   92.49
  -2   5  16  312.57  139.39
   1  -5 -16  185.48   65.09
   1  -5 -16  397.36   86.39
  -1   5  16  202.58  117.49
   0  -5 -16 1698.43  250.87
   0  -5 -16 1508.55  187.78
   0  -5 -16 1359.26  169.48
   0   5  16 2170.18  317.57
  -1  -5 -16   32.70   39.00
  -1  -5 -16   13.50   33.40
  -1  -5 -16    6.70   22.70
  -1  -5 -16   -6.10   33.20
  -1  -5 -16    4.00   56.09
  -2  -5 -16  290.57  111.09
  -2  -5 -16  261.57   51.69
  -2  -5 -16  283.77   76.79
  -2  -5 -16  137.39   55.19
  -2  -5 -16  322.37   83.39
  -3  -5 -16  369.06   90.49
  -3  -5 -16  329.67   84.69
  -3  -5 -16  460.75   57.99
  -3  -5 -16  374.56   85.99
  -3  -5 -16  374.26  119.89
  -4  -5 -16  198.08   67.09
  -4  -5 -16  337.67   75.29
  -4  -5 -16  329.97  110.49
  -4  -5 -16  325.47   84.09
  -5  -5 -16  -11.60   21.70
  -5  -5 -16   10.30   31.30
  -5  -5 -16  -30.30   57.49
  -5  -5 -16   -3.20   42.20
  -6  -5 -16  103.39   75.49
  -6  -5 -16  107.69   46.60
  -6  -5 -16  156.58   54.69
  -7  -5 -16   27.30   63.09
  -8  -5 -16 1651.03  269.67
  -9  -5 -16  657.13  183.38
  -9  -5 -16  799.82  178.58
   2  -6 -16  315.47   90.49
  -2   6  16  562.74  165.98
   1  -6 -16  591.54  117.09
  -1   6  16  644.94  176.48
   0  -6 -16  302.27   79.09
   0  -6 -16  447.86  132.49
   0   6  16  297.47  120.79
  -1  -6 -16  737.73  156.08
  -1  -6 -16  663.83  121.09
  -1  -6 -16  698.83  109.69
  -2  -6 -16   13.20   24.30
  -2  -6 -16   16.90   50.29
  -2  -6 -16  -32.40   33.20
  -3  -6 -16 1795.42  213.58
  -3  -6 -16 1897.11  159.08
  -3  -6 -16 1894.01  256.17
  -3  -6 -16 2008.20  224.08
  -4  -6 -16  377.36   83.39
  -4  -6 -16  283.77   77.99
  -5  -6 -16   73.89   47.60
  -5  -6 -16  139.79   50.39
  -6  -6 -16   24.00   27.70
  -6  -6 -16   38.40   42.20
  -7  -6 -16  296.17  117.79
  -7  -6 -16  195.78   55.29
  -8  -6 -16   -3.60   62.19
   1  -7 -16  169.48   78.09
  -1   7  16  185.28  107.99
   0  -7 -16  270.17   83.99
  -1  -7 -16  139.39   76.29
  -1  -7 -16  141.49   58.99
  -2  -7 -16  432.36  114.09
  -2  -7 -16  766.12  109.19
  -2  -7 -16  539.45  107.99
  -3  -7 -16  216.38   65.79
  -3  -7 -16  192.78   52.39
  -4  -7 -16 1096.49  120.19
  -4  -7 -16  871.21  134.19
  -5  -7 -16  219.78   68.69
  -6  -7 -16 1076.19  146.19
  -7  -7 -16  848.92  192.78
  -7  -7 -16  746.53  114.59
  -8  -7 -16  -20.50   72.69
   0  -8 -16  111.69   63.19
  -1  -8 -16  260.27   80.69
  -2  -8 -16   51.99   37.00
  -2  -8 -16   27.70   40.70
  -3  -8 -16  739.63  128.89
  -3  -8 -16  859.41  122.69
  -4  -8 -16   17.20   40.70
  -4  -8 -16   11.10   22.80
  -5  -8 -16  433.26   98.29
  -5  -8 -16  651.13   94.79
  -6  -8 -16  361.26   85.39
  -7  -8 -16  202.48   65.59
  -8  -8 -16  889.51  208.88
  -1  -9 -16  132.09   65.99
   1   9  16  150.38  128.69
  -2  -9 -16 1000.40  154.08
  -2  -9 -16  640.04  124.79
  -3  -9 -16  822.72  135.59
  -3  -9 -16  579.94  111.99
  -4  -9 -16  164.48   51.49
  -4  -9 -16   -5.80   33.90
  -5  -9 -16  289.77   69.59
  -5  -9 -16  440.86   96.29
  -6  -9 -16  107.89   59.29
  -7  -9 -16   80.19   54.79
  -4 -10 -16  132.69   67.49
  -4 -10 -16   44.50   37.70
  -5 -10 -16  397.56   90.39
  -5 -10 -16  277.87   80.79
   1   6 -17   69.69   57.69
  -1  -6  17    0.10   64.99
   0   6 -17  320.97   92.89
   0  -6  17  269.17  129.79
   3   5 -17  121.99   67.69
  -3  -5  17    0.50   50.09
   2   5 -17  745.13  136.29
  -2  -5  17  771.12  162.08
   1   5 -17   87.29   60.19
  -1  -5  17  -10.20   68.09
   0   5 -17  157.08   65.59
   0  -5  17  136.99   87.59
  -1   5 -17  182.58   74.19
   1  -5  17  122.99   84.69
  -2   5 -17    1.20   45.70
  -2   5 -17  -34.50   58.99
   2  -5  17   26.00   63.29
   4   4 -17   50.49   55.19
  -4  -4  17   40.50   64.49
   3   4 -17    0.50   43.20
  -3  -4  17   59.59   61.49
   2   4 -17  359.86   91.19
  -2  -4  17  364.36  112.49
   1   4 -17 2838.82  253.87
  -1  -4  17 2539.55  345.07
   0   4 -17  285.47   75.99
   0  -4  17  239.28   98.19
  -1   4 -17  887.61  136.79
   1  -4  17  606.54  153.68
  -2   4 -17  316.97  101.89
  -2   4 -17  176.98   71.79
   2  -4  17  271.97  113.69
  -3   4 -17    4.20   61.19
  -3   4 -17   37.70   43.60
   3  -4  17   40.80   56.09
  -4   4 -17  209.08   71.29
  -4   4 -17  277.87  111.69
   4  -4  17   69.79   73.89
   5   3 -17   85.89   59.59
  -5  -3  17   61.29   65.89
   4   3 -17  381.26   99.39
  -4  -3  17  257.27  108.79
   3   3 -17   37.90   41.80
  -3  -3  17  101.29   70.29
   2   3 -17   86.19   50.09
  -2  -3  17  146.29   79.49
   1   3 -17   20.70   38.30
  -1  -3  17  -49.50   44.30
   0   3 -17  -41.90   25.60
   0  -3  17  -46.60   35.70
  -1   3 -17   12.30   29.30
   1  -3  17   -2.50   59.09
  -2   3 -17 2721.13  240.28
  -2   3 -17 1909.41  217.28
   2  -3  17 1535.55  260.97
  -3   3 -17 1066.39  151.78
  -3   3 -17 1347.87  194.78
  -4   3 -17  226.58   94.69
  -4   3 -17  135.79   53.59
  -5   3 -17  545.15  131.19
  -5   3 -17  697.43  118.79
   5   2 -17   33.70   81.89
   5   2 -17  283.87   90.39
  -5  -2  17  140.09   93.59
   4   2 -17  110.09   75.09
   4   2 -17  273.27   85.39
  -4  -2  17  186.08   80.19
   3   2 -17 2661.13  254.27
   3   2 -17 3079.09  335.87
  -3  -2  17 2561.44  338.87
   2   2 -17 1198.38  156.78
   2   2 -17  846.22  163.18
  -2  -2  17  986.40  186.58
   1   2 -17  101.99   50.29
   1   2 -17   64.79   63.09
   0   2 -17    4.00   39.60
   0   2 -17   12.80   33.20
   0  -2  17   63.49   62.09
  -1   2 -17  230.58   94.29
  -1   2 -17  167.28   52.19
   1  -2  17   94.59   73.59
  -2   2 -17   31.80   30.50
  -2   2 -17  -16.00   31.80
  -2   2 -17   30.70   49.90
  -3   2 -17    2.20   40.30
  -3   2 -17   69.19   40.50
  -4   2 -17   66.49   51.79
  -4   2 -17   27.80   31.10
  -5   2 -17  483.35   86.09
  -5   2 -17  517.95  121.49
  -6   2 -17 1277.07  155.48
  -6   2 -17 1162.28  196.58
   5   1 -17  111.49   62.19
   5   1 -17  214.48  102.39
  -5  -1  17  286.27  111.49
   4   1 -17  726.83  158.88
   4   1 -17  711.33  132.29
  -4  -1  17  616.04  154.98
   3   1 -17  161.98   66.99
   3   1 -17  138.99   71.99
  -3  -1  17  281.37  111.89
   2   1 -17  414.36   92.29
   2   1 -17  262.07   90.79
  -2  -1  17  448.06  116.49
   1   1 -17   44.40   35.10
   1   1 -17   75.59   53.29
  -1  -1  17   -9.10   37.60
   0   1 -17 1403.76  209.98
   0   1 -17 1751.72  157.38
  -1   1 -17 2287.07  274.47
  -1   1 -17 2184.38  184.68
  -1   1 -17 1894.31  308.57
  -2   1 -17  -42.90   35.20
  -2   1 -17   11.80   37.50
  -2   1 -17    1.90   22.30
  -3   1 -17  155.98   45.40
  -3   1 -17  256.87   79.89
  -4   1 -17   10.50   46.10
  -4   1 -17   49.99   36.90
  -5   1 -17   45.20   56.89
  -6   1 -17  133.49   80.59
   5   0 -17  379.06  101.99
   5   0 -17  420.36  131.99
  -5   0  17  563.24  169.78
   4   0 -17  506.05  132.49
   4   0 -17  566.34  115.69
  -4   0  17  206.28  114.39
   3   0 -17  325.27   86.99
   3   0 -17  300.87  102.59
  -3   0  17  320.17  116.39
   2   0 -17   -3.40   51.09
   2   0 -17   20.20   37.20
  -2   0  17    5.10   53.89
   1   0 -17 1214.38  146.69
   1   0 -17 1026.90  174.18
  -1   0  17 1079.09  203.38
   0   0 -17  358.66  100.79
   0   0 -17  673.93  176.68
   0   0 -17  381.26   70.29
  -1   0 -17  252.37   51.59
  -1   0 -17  424.56  114.59
  -1   0 -17  230.68  120.09
  -2   0 -17  326.47  125.69
  -2   0 -17  438.56  111.19
  -2   0 -17  698.93   78.09
  -2   0 -17  374.76   83.69
  -3   0 -17  407.56  109.29
  -3   0 -17  228.78  109.49
  -3   0 -17  426.66   57.49
  -3   0 -17  369.06   85.19
  -4   0 -17 2924.11  273.17
  -5   0 -17  442.66  108.19
  -6   0 -17   82.89   63.79
  -7   0 -17  -26.30   49.20
   4  -1 -17  411.16  103.19
   4  -1 -17  574.24  139.49
  -4   1  17  411.26  141.39
   3  -1 -17  484.35  103.69
   3  -1 -17  806.62  163.38
   2  -1 -17  139.39   73.69
   2  -1 -17   43.00   41.80
   1  -1 -17 1424.26  160.98
   1  -1 -17 1436.16  209.28
  -1   1  17 1105.89  202.78
   0  -1 -17  -36.80   52.69
   0  -1 -17   14.00   23.90
   0  -1 -17    5.10   38.00
  -1  -1 -17   81.59   55.99
  -1  -1 -17  143.79   37.20
  -1  -1 -17  307.87  134.59
  -2  -1 -17  605.24   68.69
  -2  -1 -17  647.34  102.59
  -2  -1 -17  507.45  161.48
  -2  -1 -17  557.04  126.09
  -3  -1 -17  323.07  120.19
  -3  -1 -17  324.17   77.29
  -3  -1 -17  486.15  112.09
  -4  -1 -17  165.68   87.99
  -4  -1 -17  145.19   57.09
  -4  -1 -17  209.78   62.79
  -4  -1 -17  225.78   60.69
  -5  -1 -17  228.98  110.89
  -5  -1 -17  249.58   84.99
  -5  -1 -17  447.56   98.89
  -6  -1 -17  120.09   65.29
  -6  -1 -17   19.90   50.89
  -7  -1 -17 1078.09  193.78
  -7  -1 -17 1270.77  201.48
   4  -2 -17  166.08   84.79
   4  -2 -17  152.98   73.39
  -4   2  17   35.20   90.19
   3  -2 -17  515.15  134.39
   3  -2 -17  393.56   96.19
  -3   2  17  232.38  122.19
   2  -2 -17  372.36  103.79
   2  -2 -17  390.06   87.69
   1  -2 -17  640.54  138.59
   1  -2 -17  502.55   88.39
   0  -2 -17  973.50  161.68
   0  -2 -17 1072.49  122.29
   0  -2 -17  999.60  218.58
  -1  -2 -17   27.40   47.30
  -1  -2 -17  103.89   91.79
  -1  -2 -17   46.60   25.00
  -2  -2 -17 1410.96  111.39
  -2  -2 -17 1229.38  184.88
  -2  -2 -17 1641.64  280.27
  -3  -2 -17  406.36  101.49
  -3  -2 -17  328.87  132.09
  -3  -2 -17  289.17   74.19
  -3  -2 -17  318.07   79.39
  -4  -2 -17  186.78   59.29
  -4  -2 -17  260.77   76.09
  -4  -2 -17  157.48   69.79
  -4  -2 -17  223.28  109.59
  -4  -2 -17  186.48   71.09
  -5  -2 -17   90.59   58.19
  -5  -2 -17  350.66  108.49
  -5  -2 -17   10.00   46.40
  -6  -2 -17  514.55  145.09
  -6  -2 -17  659.73  147.49
  -6  -2 -17  645.74  135.19
  -7  -2 -17  154.18   80.49
  -7  -2 -17   45.20   69.69
  -8  -2 -17  467.35  138.99
  -8  -2 -17  317.47  115.69
   4  -3 -17   -3.40   49.40
   4  -3 -17  -18.30   52.69
  -4   3  17   34.70   90.89
   3  -3 -17  247.08   85.09
   3  -3 -17  348.07   90.99
  -3   3  17  327.37  142.39
   2  -3 -17  108.19   54.19
   2  -3 -17  257.87   88.39
  -2   3  17  150.38   97.39
   1  -3 -17 1147.69  142.89
   1  -3 -17  709.93  146.89
   0  -3 -17  -34.60   81.19
   0  -3 -17   33.00   29.30
   0  -3 -17   48.70   53.19
  -1  -3 -17  707.63   88.79
  -1  -3 -17  735.13  178.98
  -1  -3 -17  579.74  115.59
  -1  -3 -17  821.52  139.69
  -2  -3 -17  361.76   91.39
  -2  -3 -17  479.75  109.49
  -2  -3 -17  487.65  152.98
  -2  -3 -17  432.66   56.19
  -3  -3 -17 1149.19  153.48
  -3  -3 -17 1103.79  223.68
  -3  -3 -17 1787.32  218.78
  -3  -3 -17 1183.78  160.38
  -4  -3 -17  712.03  176.68
  -4  -3 -17  569.44  103.19
  -4  -3 -17  941.11  141.19
  -4  -3 -17  585.24  125.79
  -5  -3 -17  701.63  129.99
  -5  -3 -17  491.75   96.39
  -5  -3 -17  850.81  117.19
  -5  -3 -17  498.55  115.49
  -5  -3 -17 1040.40  200.88
  -6  -3 -17 1086.49  176.28
  -6  -3 -17  619.74  156.78
  -6  -3 -17  557.24  129.39
  -7  -3 -17   88.89   76.59
  -7  -3 -17    3.80   59.49
  -8  -3 -17   21.70   64.29
  -8  -3 -17  -36.70   65.19
   3  -4 -17  321.77  102.59
   3  -4 -17   69.49   51.49
  -3   4  17   92.29   97.29
   2  -4 -17 1404.36  192.18
   2  -4 -17  871.51  146.39
  -2   4  17 1265.77  251.07
   1  -4 -17  620.04  108.19
   1  -4 -17  452.75  117.29
  -1   4  17  532.95  162.98
   0  -4 -17  276.87   87.99
   0  -4 -17  280.27   63.89
   0  -4 -17  223.38  115.69
  -1  -4 -17   15.00   47.90
  -1  -4 -17   67.39   52.39
  -1  -4 -17   -9.10   80.19
  -1  -4 -17    7.00   23.50
  -2  -4 -17  816.62  137.19
  -2  -4 -17 1083.79  212.68
  -2  -4 -17  802.22   90.89
  -2  -4 -17  855.01  142.19
  -3  -4 -17   25.40   43.50
  -3  -4 -17   42.00   45.30
  -3  -4 -17   34.60   72.39
  -4  -4 -17  368.56   82.59
  -4  -4 -17  463.55  106.19
  -4  -4 -17  237.98   70.49
  -4  -4 -17  129.69  108.39
  -5  -4 -17  249.68  114.59
  -5  -4 -17  244.28   70.49
  -5  -4 -17  178.78   68.69
  -5  -4 -17  237.98   64.39
  -5  -4 -17  312.67   90.59
  -6  -4 -17  572.94   93.59
  -6  -4 -17  409.66  112.19
  -6  -4 -17  487.55  120.29
  -7  -4 -17 1107.99  199.58
  -7  -4 -17 1189.08  197.88
  -8  -4 -17  135.09   78.59
  -8  -4 -17   64.79   70.79
   3  -5 -17 1222.28  182.88
   2  -5 -17  205.78   75.19
   2  -5 -17   96.09   60.79
  -2   5  17   29.40   81.89
   1  -5 -17  113.09   66.29
   1  -5 -17  242.88   74.89
  -1   5  17   73.49   82.99
   0  -5 -17    2.30   30.30
   0  -5 -17   -0.60   40.50
   0  -5 -17   86.99   73.69
  -1  -5 -17 1066.79  161.38
  -1  -5 -17 1017.20  163.88
  -1  -5 -17 1164.08  221.18
  -1  -5 -17 1088.69  134.59
  -2  -5 -17 1006.60  150.18
  -2  -5 -17  895.31  150.58
  -2  -5 -17  925.11  106.49
  -2  -5 -17  929.91  199.88
  -3  -5 -17   -0.10   60.19
  -3  -5 -17   17.30   42.90
  -3  -5 -17  110.79   52.69
  -3  -5 -17   92.19   46.90
  -4  -5 -17  400.06   93.29
  -4  -5 -17  187.68   65.29
  -4  -5 -17  100.59   61.69
  -4  -5 -17  302.27  109.49
  -5  -5 -17  339.87   79.69
  -5  -5 -17  129.99   53.19
  -5  -5 -17  331.17   92.69
  -6  -5 -17  150.48   59.59
  -6  -5 -17  132.79   61.19
  -6  -5 -17  241.18   62.99
  -6  -5 -17  344.27  111.29
  -7  -5 -17  106.09   78.49
  -8  -5 -17  233.18  112.19
   2  -6 -17  154.68   71.89
  -2   6  17  241.08  131.69
   1  -6 -17   26.80   42.10
  -1   6  17  -16.50   68.79
   0  -6 -17 1798.42  208.58
   0   6  17 1614.04  288.27
  -1  -6 -17  735.53  114.79
  -1  -6 -17  823.32  146.59
  -1  -6 -17  882.41  181.88
  -2  -6 -17  -23.20   32.40
  -2  -6 -17   34.30   69.59
  -2  -6 -17   -6.40   23.40
  -3  -6 -17   25.90   21.90
  -3  -6 -17    5.10   56.09
  -3  -6 -17   -7.90   37.50
  -4  -6 -17  401.86   91.19
  -5  -6 -17 1558.14  184.38
  -5  -6 -17 1514.15  190.78
  -6  -6 -17   73.29   49.00
  -6  -6 -17   54.39   44.10
  -7  -6 -17  686.43  170.08
  -8  -6 -17   14.00   70.49
   1  -7 -17    1.30   35.10
  -1   7  17   62.39   90.59
   0  -7 -17  308.87   91.09
  -1  -7 -17  148.49  102.99
  -1  -7 -17  -24.50   28.70
  -2  -7 -17  183.38   70.99
  -2  -7 -17  135.59   49.30
  -3  -7 -17  860.71  113.09
  -3  -7 -17  768.82  128.69
  -4  -7 -17 1160.48  161.98
  -5  -7 -17  113.89   55.29
  -6  -7 -17   18.10   39.50
  -7  -7 -17  240.38  110.69
  -7  -7 -17   44.20   48.10
  -8  -7 -17 1167.78  242.18
  -1  -8 -17  101.79   52.49
  -2  -8 -17   29.80   36.30
  -2  -8 -17   -0.10   34.60
  -3  -8 -17  671.53  126.29
  -3  -8 -17  583.64   98.69
  -4  -8 -17   41.80   23.30
  -4  -8 -17  112.09   52.89
  -5  -8 -17  341.97   96.19
  -6  -8 -17   59.49   45.60
  -7  -8 -17  642.34  114.19
  -2  -9 -17 1037.80  166.18
  -2  -9 -17 1003.80  155.78
  -3  -9 -17  440.86   93.69
  -3  -9 -17  452.55  114.99
  -4  -9 -17  201.08   53.29
  -4  -9 -17   -8.30   41.80
  -5  -9 -17    3.10   35.40
  -6  -9 -17  192.48   72.79
   1   5 -18  682.53  127.59
  -1  -5  18  575.24  156.98
   0   5 -18 1079.39  165.68
   0  -5  18 1758.82  277.67
   3   4 -18   -7.70   42.90
  -3  -4  18   17.30   63.39
   2   4 -18  197.58   71.29
  -2  -4  18  275.27  105.49
   1   4 -18  153.58   59.99
  -1  -4  18   86.19   86.89
   0   4 -18  299.37   78.79
   0  -4  18  235.08  106.09
  -1   4 -18  794.32  123.39
   1  -4  18  805.82  180.58
  -2   4 -18   12.00   36.20
   2  -4  18   54.79   63.59
  -3   4 -18 1488.05  191.78
  -3   4 -18 1450.05  212.98
   3  -4  18 1114.79  216.88
   4   3 -18  909.81  153.28
  -4  -3  18 1201.18  211.08
   3   3 -18  117.99   61.09
  -3  -3  18  137.09   82.19
   2   3 -18  620.54  116.29
  -2  -3  18 1038.00  190.18
   1   3 -18  -18.50   30.50
   0   3 -18  119.39   52.79
   0  -3  18  331.87  124.29
  -1   3 -18  225.88   64.99
   1  -3  18  531.45  150.78
  -2   3 -18  362.36   83.39
  -2   3 -18  412.76  119.29
   2  -3  18  275.07  108.39
  -3   3 -18  394.86  103.69
  -3   3 -18  201.88   86.59
  -3   3 -18   74.79   49.50
  -4   3 -18  629.14  107.09
  -4   3 -18  778.72  151.28
   4   2 -18  202.18   89.39
   4   2 -18  104.09   56.29
  -4  -2  18  111.19   78.89
   3   2 -18  118.19   58.39
   3   2 -18  253.57   95.19
  -3  -2  18  232.68   98.59
   2   2 -18  853.41  158.78
   2   2 -18  511.45  100.19
  -2  -2  18  588.74  143.79
   1   2 -18 2016.00  195.18
   1   2 -18 2244.08  268.67
   0   2 -18  228.38   62.99
   0   2 -18  175.18   85.49
   0  -2  18   71.59   67.89
  -1   2 -18  767.12  158.28
  -1   2 -18  858.91  114.69
   1  -2  18  790.72  204.28
  -2   2 -18  224.48   93.69
  -2   2 -18  118.89   47.20
  -3   2 -18  166.78   72.19
  -3   2 -18  212.18   84.39
  -3   2 -18  141.39   53.29
  -4   2 -18   22.10   54.29
  -4   2 -18   43.30   39.30
  -5   2 -18  484.05  117.29
   4   1 -18  238.18  100.69
   4   1 -18  331.27   92.89
  -4  -1  18  174.78   86.89
   3   1 -18  180.38   68.09
   3   1 -18  171.18   80.59
  -3  -1  18  273.07  107.39
   2   1 -18 1040.80  174.38
   2   1 -18  917.41  137.29
  -2  -1  18  835.92  179.18
   1   1 -18  -12.60   25.10
   1   1 -18   60.59   62.29
   0   1 -18  231.78   87.59
   0   1 -18  158.68   50.79
  -1   1 -18  125.89   79.69
  -1   1 -18  309.37   60.39
  -2   1 -18 2177.28  278.27
  -2   1 -18 1793.92  159.78
  -3   1 -18 1156.28  123.59
  -3   1 -18 1200.78  168.18
  -3   1 -18  837.72  176.58
  -4   1 -18  297.77   92.49
  -5   1 -18  326.27   95.99
  -6   1 -18   78.49   59.79
   4   0 -18  318.17  113.89
   4   0 -18   68.99   53.59
  -4   0  18   37.80   96.49
   3   0 -18 1261.07  198.08
   3   0 -18  961.60  150.28
  -3   0  18  846.72  189.58
   2   0 -18  422.26  120.29
   2   0 -18  434.86   91.99
  -2   0  18  339.27  119.29
   1   0 -18  208.28   61.99
   1   0 -18  247.98   92.49
  -1   0  18   66.49   62.49
   0   0 -18   12.00   23.30
   0   0 -18  -60.49   37.50
  -1   0 -18 1625.44  224.88
  -1   0 -18 1637.14  142.39
  -2   0 -18  248.98   90.89
  -2   0 -18  169.38   38.80
  -3   0 -18    8.40   38.70
  -3   0 -18  161.48   75.59
  -4   0 -18  210.38   73.39
  -5   0 -18  782.02  148.59
  -6   0 -18 1408.56  207.78
   4  -1 -18 1420.36  223.58
   4  -1 -18 1631.14  212.28
  -4   1  18  739.03  197.38
   3  -1 -18  322.27   84.59
   3  -1 -18  426.16  116.09
   2  -1 -18    8.60   56.69
   2  -1 -18   13.10   36.40
   1  -1 -18  -38.10   47.60
   1  -1 -18   29.80   32.30
  -1   1  18   69.09   61.59
   0  -1 -18  663.63  145.29
   0  -1 -18  960.60  114.99
  -1  -1 -18 1433.16  210.88
  -1  -1 -18 1305.67  119.29
  -2  -1 -18  105.09   83.49
  -2  -1 -18   88.09   70.59
  -3  -1 -18  132.79   55.89
  -3  -1 -18  135.59   66.69
  -4  -1 -18  628.54  117.79
  -4  -1 -18  650.13  141.39
  -4  -1 -18  774.42  115.89
  -5  -1 -18  419.46   99.69
  -6  -1 -18   77.99   50.69
  -7  -1 -18  112.39   64.89
   3  -2 -18  502.05  139.59
   3  -2 -18  308.57   81.59
  -3   2  18  236.48  116.79
   2  -2 -18   89.39   76.09
   2  -2 -18    3.10   33.50
   1  -2 -18 1482.25  170.68
   1  -2 -18 1670.13  236.88
   0  -2 -18  849.41  110.49
   0  -2 -18 1153.98  178.48
  -1  -2 -18    5.80   72.29
  -1  -2 -18    4.20   46.90
  -1  -2 -18   59.29   27.10
  -2  -2 -18   64.49   88.29
  -2  -2 -18   83.89   62.49
  -3  -2 -18  161.28   81.59
  -3  -2 -18  220.28  114.19
  -3  -2 -18  155.68   61.49
  -3  -2 -18  177.78   58.29
  -4  -2 -18 1736.13  205.98
  -4  -2 -18 1948.91  199.08
  -4  -2 -18 1941.51  226.38
  -4  -2 -18 1905.31  301.77
  -4  -2 -18 2093.39  257.97
  -5  -2 -18  190.78  102.49
  -5  -2 -18   87.59   56.89
  -5  -2 -18   91.39   59.39
  -6  -2 -18  412.96  116.89
  -6  -2 -18  485.65  118.09
  -7  -2 -18   15.00   62.29
  -7  -2 -18   -1.60   53.29
   3  -3 -18  146.49   81.39
   3  -3 -18  168.28   72.99
  -3   3  18  363.76  134.09
   2  -3 -18   21.70   36.60
   2  -3 -18   11.10   59.19
  -2   3  18   75.39   92.89
   1  -3 -18  260.17   91.69
   1  -3 -18  367.96   77.19
   0  -3 -18  166.08   50.49
   0  -3 -18   90.09   70.39
  -1  -3 -18  197.28   45.40
  -1  -3 -18  281.97  134.29
  -1  -3 -18  200.38   92.59
  -2  -3 -18  407.26   95.89
  -2  -3 -18  552.34  118.39
  -2  -3 -18  486.15  162.28
  -3  -3 -18 1814.72  230.78
  -3  -3 -18 1676.53  281.77
  -3  -3 -18 1134.59  164.98
  -4  -3 -18  223.28  114.29
  -4  -3 -18  265.97   76.99
  -4  -3 -18  241.48   71.99
  -4  -3 -18  205.88   71.49
  -4  -3 -18  188.28   73.69
  -5  -3 -18   94.29   62.99
  -5  -3 -18  180.68  107.39
  -5  -3 -18  -15.70   41.80
  -5  -3 -18   48.30   54.89
  -5  -3 -18   91.69   48.20
  -5  -3 -18   47.30   42.20
  -6  -3 -18   53.99   53.49
  -6  -3 -18   15.90   63.29
  -6  -3 -18   31.50   64.49
  -7  -3 -18  987.90  182.38
  -7  -3 -18  564.74  143.89
   2  -4 -18  757.12  148.39
   2  -4 -18  682.33  124.29
  -2   4  18  817.02  198.18
   1  -4 -18   89.39   64.59
   1  -4 -18   57.59   38.70
   0  -4 -18  469.05  115.79
   0  -4 -18  476.85   85.19
  -1  -4 -18    5.40   24.30
  -1  -4 -18 -123.59   52.59
  -1  -4 -18   51.59   53.19
  -2  -4 -18  657.53  171.98
  -2  -4 -18  601.94  129.79
  -3  -4 -18   37.90   48.60
  -3  -4 -18   29.00   71.89
  -3  -4 -18   18.20   48.10
  -4  -4 -18  337.07   84.69
  -4  -4 -18  584.94  168.68
  -4  -4 -18  497.55  100.99
  -4  -4 -18  674.53  129.39
  -4  -4 -18  378.36   92.39
  -5  -4 -18   -7.90   45.20
  -5  -4 -18  141.99   52.99
  -5  -4 -18   58.39   64.49
  -5  -4 -18  151.98   72.09
  -5  -4 -18   74.59   77.69
  -5  -4 -18  108.09   60.69
  -6  -4 -18  958.10  169.98
  -6  -4 -18  966.70  134.49
  -6  -4 -18 1142.89  190.88
  -7  -4 -18  547.65  136.09
  -7  -4 -18  261.57   99.69
   2  -5 -18  601.74  129.79
   2  -5 -18  872.81  153.78
  -2   5  18  513.15  171.08
   1  -5 -18  920.31  148.89
   1  -5 -18 1203.18  181.98
  -1   5  18 1002.80  220.78
   0  -5 -18  129.89   66.09
   0  -5 -18   81.69   42.90
  -1  -5 -18 1167.88  140.49
  -1  -5 -18 1207.78  186.18
  -1  -5 -18 1126.49  232.08
  -1  -5 -18 1232.78  180.58
  -2  -5 -18  246.68   81.99
  -2  -5 -18  286.67  114.79
  -2  -5 -18  318.87   55.39
  -2  -5 -18  381.86   98.79
  -3  -5 -18  292.97   87.29
  -3  -5 -18  297.07   88.19
  -3  -5 -18  307.97  135.69
  -4  -5 -18  205.18  100.29
  -4  -5 -18  301.87   92.29
  -4  -5 -18  255.57   78.89
  -5  -5 -18  497.15   95.29
  -5  -5 -18  390.16   86.49
  -6  -5 -18  246.08   69.39
  -6  -5 -18  376.76  112.49
  -7  -5 -18  182.08   85.69
   1  -6 -18   44.50   42.40
  -1   6  18  145.19  102.19
   0  -6 -18   74.89   46.90
   0   6  18  152.68  109.09
  -1  -6 -18    0.10   46.90
  -1  -6 -18   60.09   39.70
  -2  -6 -18 1123.69  125.19
  -2  -6 -18 1082.69  208.68
  -2  -6 -18  785.62  145.29
  -3  -6 -18  148.29   63.89
  -4  -6 -18  935.11  148.19
  -5  -6 -18  354.66   84.59
  -6  -6 -18  455.65   96.89
  -7  -6 -18  581.64  155.88
   0  -7 -18  112.69   57.99
  -1  -7 -18   64.79   57.49
  -1  -7 -18   91.89   47.20
  -2  -7 -18  415.36  103.09
  -2  -7 -18  444.26   83.99
  -3  -7 -18   17.70   48.90
  -4  -7 -18  100.09   54.69
  -5  -7 -18  568.54  116.09
  -6  -7 -18  641.84  122.09
  -7  -7 -18  243.68  120.19
  -2  -8 -18  107.69   52.19
  -2  -8 -18   52.09   58.49
  -3  -8 -18   86.89   69.69
  -3  -8 -18  154.78   44.80
  -4  -8 -18   36.70   42.80
  -5  -8 -18  418.26   95.69
  -6  -8 -18   69.29   56.49
   1   4 -19   40.20   43.00
  -1  -4  19  -47.10   53.19
   0   4 -19  744.73  126.19
   0  -4  19 1126.09  218.98
  -1   4 -19  129.99   52.59
   1  -4  19  274.67  107.89
   2   3 -19  180.28   67.19
  -2  -3  19   77.59   66.39
   1   3 -19  386.46   86.49
   0   3 -19  671.23  112.29
   0  -3  19  790.52  186.18
  -1   3 -19   25.70   39.00
  -1   3 -19 -130.49   35.70
   1  -3  19   65.09   87.69
  -2   3 -19  -24.80   39.70
  -2   3 -19  155.78   83.09
   2  -3  19   42.40   68.69
  -3   3 -19  381.86  115.19
  -3   3 -19  463.05   94.19
   3   2 -19   34.70   52.09
   3   2 -19   79.89   53.59
  -3  -2  19   54.49   73.29
   2   2 -19 1125.89  186.28
   2   2 -19 1042.90  148.19
  -2  -2  19 1075.39  201.88
   1   2 -19  900.11  165.68
   0   2 -19  159.18   54.19
   0   2 -19  277.77   97.99
   0  -2  19  308.37  121.69
  -1   2 -19  309.37  111.49
  -1   2 -19  349.67   74.59
   1  -2  19  349.37  153.68
  -2   2 -19   33.70   36.00
  -2   2 -19   32.40   69.19
  -3   2 -19 1277.17  208.48
  -4   2 -19  247.98   88.99
   3   1 -19  -15.60   55.59
   3   1 -19   -9.20   35.40
  -3  -1  19   70.49   77.49
   2   1 -19  132.29   92.29
   2   1 -19  194.48   66.59
  -2  -1  19  303.37  106.69
   1   1 -19  289.27   99.09
   1   1 -19  341.67   75.99
   0   1 -19  398.96   76.79
   0   1 -19  454.55  118.79
  -1   1 -19  265.77   94.69
  -1   1 -19  322.67   63.39
  -2   1 -19 1224.08  133.59
  -2   1 -19 1497.15  235.78
  -3   1 -19  460.45  134.69
  -4   1 -19  557.14  117.59
  -5   1 -19  -10.50   53.79
   3   0 -19  492.35  129.09
   3   0 -19  406.46   96.49
   2   0 -19  339.17  117.89
   2   0 -19  218.78   66.49
  -2   0  19  308.17  117.39
   1   0 -19  876.71  126.19
   1   0 -19 1065.89  179.08
   0   0 -19  151.48   76.29
   0   0 -19    3.90   25.90
  -1   0 -19  491.25   72.39
  -1   0 -19  449.66  127.69
  -2   0 -19   66.69   69.49
  -3   0 -19  776.22  158.28
  -4   0 -19  -51.19   36.70
  -4   0 -19  -11.10   45.50
  -5   0 -19 1019.50  169.68
   3  -1 -19  312.57  114.89
   3  -1 -19  614.04  116.39
   2  -1 -19 1731.13  243.58
   2  -1 -19 1497.45  182.78
   1  -1 -19    5.90   28.10
   1  -1 -19   58.19   62.19
  -1   1  19   -9.50   55.09
   0  -1 -19  729.43  100.29
   0  -1 -19  759.42  152.48
  -1  -1 -19  759.52  152.38
  -1  -1 -19  488.95   72.89
  -2  -1 -19  690.03  144.69
  -3  -1 -19  629.74  139.69
  -4  -1 -19  207.48   85.29
  -4  -1 -19  201.88   77.69
  -5  -1 -19  179.58   80.79
  -6  -1 -19  147.49   77.19
   3  -2 -19   78.39   75.09
   3  -2 -19  132.29   59.09
  -3   2  19   35.60   89.29
   2  -2 -19   53.79   47.60
   2  -2 -19   76.59   63.49
   1  -2 -19  350.76  110.69
   1  -2 -19  124.89   49.50
   0  -2 -19  166.58   77.39
   0  -2 -19  159.68   46.10
  -1  -2 -19 2547.95  285.37
  -1  -2 -19 1978.90  168.18
  -2  -2 -19  516.05  121.19
  -3  -2 -19  212.78   69.19
  -3  -2 -19  259.37   94.89
  -4  -2 -19  444.46  119.59
  -4  -2 -19  433.26   91.39
  -4  -2 -19  548.55  106.99
  -5  -2 -19  543.65  118.59
  -5  -2 -19  482.65  131.69
  -6  -2 -19  878.51  158.88
   2  -3 -19  102.89   56.19
   2  -3 -19  114.29   76.89
   1  -3 -19  -23.80   56.79
   1  -3 -19   18.20   34.70
   0  -3 -19  179.58   82.79
   0  -3 -19  121.09   44.40
  -1  -3 -19  228.28   86.49
  -1  -3 -19  362.66   60.59
  -2  -3 -19  126.99   70.09
  -3  -3 -19   77.39   74.49
  -3  -3 -19   89.39   63.39
  -4  -3 -19  810.22  134.09
  -4  -3 -19 1105.39  151.48
  -4  -3 -19 1445.56  207.98
  -4  -3 -19  737.23  192.18
  -4  -3 -19  667.13  120.49
  -5  -3 -19 1232.28  178.58
  -5  -3 -19 1291.57  182.88
  -5  -3 -19 1220.18  186.78
  -5  -3 -19  829.62  139.39
  -6  -3 -19  120.89   67.49
  -6  -3 -19   69.19   64.89
  -7  -3 -19  192.58   89.99
  -7  -3 -19  194.78   94.49
   2  -4 -19   70.99   45.60
   2  -4 -19  -70.09   59.09
  -2   4  19   21.00   88.99
   1  -4 -19 1748.53  245.28
   1  -4 -19 2104.39  196.58
   0  -4 -19 1716.33  230.98
   0  -4 -19 1292.57  156.08
  -1  -4 -19    0.70   24.80
  -1  -4 -19  -10.00   57.79
  -2  -4 -19  -51.09   48.40
  -3  -4 -19  198.38  111.59
  -3  -4 -19   66.89   65.99
  -4  -4 -19  623.84  113.59
  -4  -4 -19  538.05  163.18
  -4  -4 -19  483.85  122.59
  -5  -4 -19   35.10   51.39
  -5  -4 -19   35.50   50.29
  -5  -4 -19    4.70   38.60
  -5  -4 -19  172.98   78.19
  -6  -4 -19  287.17   99.49
  -6  -4 -19  184.68   89.69
  -6  -4 -19  372.26  104.09
  -7  -4 -19  110.99   71.09
  -7  -4 -19   -4.90   77.39
   1  -5 -19   42.60   66.99
   1  -5 -19  -37.70   30.20
  -1   5  19   -7.60   67.99
   0  -5 -19  186.48   79.59
   0  -5 -19  182.48   61.69
  -1  -5 -19  381.86   72.49
  -1  -5 -19  328.37   96.29
  -1  -5 -19  196.58   87.29
  -2  -5 -19  516.45  126.29
  -2  -5 -19 1113.09  166.28
  -3  -5 -19 2070.49  242.58
  -3  -5 -19 1934.31  298.27
  -4  -5 -19   85.79   57.99
  -5  -5 -19   64.69   46.70
  -6  -5 -19  -29.40   47.90
  -6  -5 -19   50.19   44.70
  -7  -5 -19  406.66  118.59
  -7  -5 -19  207.78   93.69
   0  -6 -19   92.49   48.70
   0   6  19   40.40   97.59
  -1  -6 -19   75.89   59.89
  -1  -6 -19   28.10   37.00
  -2  -6 -19  -36.30   37.80
  -3  -6 -19   51.59   54.79
  -4  -6 -19  337.07   93.69
  -5  -6 -19  109.59   58.99
  -6  -6 -19 1468.15  185.98
  -6  -6 -19 1477.85  225.38
  -1  -7 -19 1167.48  154.68
  -1  -7 -19 1315.07  199.28
  -2  -7 -19  -36.90   46.70
  -3  -7 -19   31.20   48.10
  -4  -7 -19  133.29   69.99
  -5  -7 -19  -35.60   42.40
  -6  -7 -19  147.09   66.99
  -4  -8 -19  633.24  127.99
   1   2 -20  240.98   65.89
   1   2 -20  137.79   77.89
   0   2 -20 2649.43  302.37
   0   2 -20 1575.14  188.18
  -1   2 -20  756.02  154.18
  -1   2 -20  547.45   92.79
  -2   2 -20  147.19   89.59
  -3   2 -20   72.09   73.79
   2   1 -20   53.29   65.69
   2   1 -20   52.89   44.70
  -2  -1  20  129.59   80.99
   1   1 -20  101.59   43.10
   1   1 -20  -52.19   50.19
   0   1 -20  306.07  107.09
   0   1 -20  227.78   58.09
  -1   1 -20   28.50   31.30
  -1   1 -20   68.59   76.09
  -2   1 -20  -29.20   65.99
  -3   1 -20  920.11  178.28
  -4   1 -20 1139.09  200.18
   2   0 -20 1443.76  182.18
   2   0 -20 1619.64  241.78
   1   0 -20 1469.45  166.88
   1   0 -20 1162.58  204.38
   0   0 -20   28.70   32.80
   0   0 -20  135.09   77.89
  -1   0 -20  118.59   74.09
  -2   0 -20  -96.19   39.60
  -3   0 -20  158.38   89.69
  -4   0 -20   49.30   64.39
   2  -1 -20  -14.10   33.20
   2  -1 -20   -7.00   61.79
   1  -1 -20  352.96   73.79
   1  -1 -20  335.47  116.29
   0  -1 -20  841.02  106.69
   0  -1 -20  715.83  151.98
  -1  -1 -20  871.91  170.98
  -2  -1 -20 1655.53  242.68
  -3  -1 -20  148.39   87.89
  -4  -1 -20  -32.10   56.29
  -5  -1 -20  -29.50   51.39
  -5  -1 -20  115.49   62.49
   2  -2 -20   56.89   76.89
   2  -2 -20   27.80   42.40
   1  -2 -20   62.49   73.89
   1  -2 -20   27.30   34.00
   0  -2 -20  150.18   80.09
   0  -2 -20  146.49   48.00
  -1  -2 -20   37.70   62.89
  -2  -2 -20  197.18   84.09
  -3  -2 -20 1495.05  229.78
  -4  -2 -20   17.00   52.89
  -5  -2 -20 1271.87  178.18
  -5  -2 -20 1187.18  197.78
   1  -3 -20  111.39   73.39
   1  -3 -20  -13.10   27.00
   0  -3 -20 1497.35  218.98
   0  -3 -20 1043.30  132.49
  -1  -3 -20   79.19   64.79
  -2  -3 -20   83.89   60.89
  -3  -3 -20  209.18   85.89
  -4  -3 -20  -30.40   57.29
  -5  -3 -20   41.00   43.80
  -5  -3 -20   -8.40   58.19
  -5  -3 -20   82.39   50.09
  -6  -3 -20  595.14  139.39
  -6  -3 -20  902.21  167.08
   1  -4 -20  -16.50   57.29
   1  -4 -20   -4.30   34.60
   0  -4 -20  236.68  100.79
   0  -4 -20  251.17   61.19
  -1  -4 -20 1767.92  240.28
  -2  -4 -20  285.77   99.19
  -3  -4 -20  693.63  147.19
  -4  -4 -20  601.94  134.99
  -4  -4 -20  485.85  109.99
  -5  -4 -20    7.20   62.99
  -5  -4 -20   49.00   45.40
  -5  -4 -20  -62.09   42.90
  -6  -4 -20   77.49   72.49
  -6  -4 -20  203.88   80.89
  -6  -4 -20  175.48   80.49
   0  -5 -20   44.50   38.60
  -1  -5 -20   10.40   50.39
  -2  -5 -20  -15.60   49.40
  -3  -5 -20   -0.20   50.79
  -4  -5 -20  972.40  156.38
  -5  -5 -20  796.32  133.59
  -6  -5 -20  269.37   97.89
  -6  -5 -20  255.67  101.39
  -1  -6 -20   68.29   54.79
  -2  -6 -20  -42.60   43.50
  -3  -6 -20  126.69   71.69
  -4  -6 -20   80.99   55.59
  -5  -6 -20  -26.00   42.90
   0   1 -21  -23.30   25.70
   0   1 -21   -2.70   55.79
  -1   1 -21  214.08   97.19
  -2   1 -21  150.58   90.09
   0   0 -21 2707.43  317.57
   0   0 -21 2225.58  195.88
  -1   0 -21  625.04  144.49
  -2   0 -21  299.77  103.39
  -3   0 -21   57.19   70.59
   0  -1 -21  143.79   75.89
  -1  -1 -21  144.49   72.29
  -2  -1 -21   -9.00   66.99
  -3  -1 -21 1695.53  245.98
  -4  -1 -21 1857.51  268.37
   0  -2 -21   72.09   75.79
  -1  -2 -21   16.20   71.69
  -2  -2 -21  158.88   86.09
  -3  -2 -21  -51.59   49.30
  -4  -2 -21   57.59   65.09
   0  -3 -21  383.46  123.09
  -1  -3 -21  824.32  163.98
  -2  -3 -21 1348.17  202.08
  -3  -3 -21  186.58   92.99
  -4  -3 -21   79.39   76.39
  -5  -3 -21   64.59   52.89
  -5  -3 -21   88.49   81.69
  -1  -4 -21  164.88   91.29
  -2  -4 -21  247.48   93.59
  -3  -4 -21  578.34  124.89
  -3  -4 -21  905.11  171.98
  -4  -4 -21   21.50   64.59
  -4  -4 -21   21.40   47.70
  -5  -4 -21 1157.18  196.18
  -2  -5 -21   15.70   48.10
  -3  -5 -21  135.09   71.79
  -4  -5 -21  197.58   82.29
   0   0   0    0.00    0.00

_computing_structure_solution     'SHELXT 2018/2 (Sheldrick, 2018)'
;
_shelx_hkl_checksum                52551
_olex2_submission_special_instructions  'No special instructions were received'

# start Validation Reply Form
_vrf_PLAT910_msu_hg15c5_lt_0m
;
PROBLEM: Missing # of FCF Reflection(s) Below Theta(Min). 16 Note
RESPONSE: Closed by beamstop.
;
_vrf_PLAT973_msu_hg15c5_lt_0m
;
PROBLEM: Check Calcd Positive Resid. Density on Hg1 1.67 eA-3
RESPONSE: The peak is located near the heavy atom.
;
_vrf_PLAT976_msu_hg15c5_lt_0m
;
PROBLEM: Check Calcd Resid. Dens. 0.93Ang From O7 . -1.62 eA-3
RESPONSE: The peak is located near the heavy atom.
;
# end Validation Reply Form
